@<TRIPOS>MOLECULE
*****
 4 3 0 0 0
SMALL
GASTEIGER

@<TRIPOS>ATOM
      1 O1           0.0021   -0.0041    0.0020 O.2     1  UNL1       -0.3047
      2 C1          -0.0143    1.2034    0.0087 C.2     1  UNL1        0.1071
      3 H1           0.9136    1.7561    0.0028 H       1  UNL1        0.0988
      4 H2          -0.9568    1.7306    0.0160 H       1  UNL1        0.0988
@<TRIPOS>BOND
     1     1     2    2
     2     2     3    1
     3     2     4    1
