@<TRIPOS>MOLECULE
*****
 4 3 0 0 0
SMALL
GASTEIGER

@<TRIPOS>ATOM
      1 N1          -0.0116    1.0048    0.0076 N.3     1  UNL1       -0.3437
      2 H1           0.0021   -0.0041    0.0020 H       1  UNL1        0.1146
      3 H2           0.9253    1.3792    0.0006 H       1  UNL1        0.1146
      4 H3          -0.5500    1.3634   -0.7668 H       1  UNL1        0.1146
@<TRIPOS>BOND
     1     1     2    1
     2     1     3    1
     3     1     4    1
