@<TRIPOS>MOLECULE
*****
 5 4 0 0 0
SMALL
GASTEIGER

@<TRIPOS>ATOM
      1 C1          -0.0161    1.3381    0.0094 C.2     1  UNL1        0.2919
      2 O1           0.0021   -0.0041    0.0020 O.3     1  UNL1       -0.4828
      3 O2           1.0219    1.9564    0.0028 O.2     1  UNL1       -0.2548
      4 H1          -0.9587    1.8653    0.0167 H       1  UNL1        0.1510
      5 H2          -0.8535   -0.4548    0.0078 H       1  UNL1        0.2948
@<TRIPOS>BOND
     1     1     2    1
     2     1     3    2
     3     1     4    1
     4     2     5    1
