@<TRIPOS>MOLECULE
*****
 14 13 0 0 0
SMALL
GASTEIGER

@<TRIPOS>ATOM
      1 C1           2.6810   -0.3660   -0.0000 C.3     0  UNK0       -0.0306
      2 C2           1.3840    0.4460    0.0000 C.3     0  UNK0        0.0896
      3 O1           0.2470   -0.4570    0.0000 O.3     0  UNK0       -0.4651
      4 C3          -1.0010    0.0360   -0.0000 C.2     0  UNK0        0.3039
      5 O2          -1.1790    1.2310   -0.0000 O.2     0  UNK0       -0.2512
      6 C4          -2.1810   -0.9020   -0.0000 C.3     0  UNK0        0.0332
      7 H1           3.5340    0.3120    0.0000 H       0  UNK0        0.0262
      8 H2           2.7160   -0.9950    0.8900 H       0  UNK0        0.0262
      9 H3           2.7160   -0.9950   -0.8900 H       0  UNK0        0.0262
     10 H4           1.3490    1.0740    0.8900 H       0  UNK0        0.0694
     11 H5           1.3490    1.0740   -0.8900 H       0  UNK0        0.0694
     12 H6          -2.4660   -1.1280    1.0280 H       0  UNK0        0.0342
     13 H7          -3.0190   -0.4310   -0.5140 H       0  UNK0        0.0342
     14 H8          -1.9120   -1.8240   -0.5140 H       0  UNK0        0.0342
@<TRIPOS>BOND
     1     1     2    1
     2     1     7    1
     3     1     8    1
     4     1     9    1
     5     2     3    1
     6     2    10    1
     7     2    11    1
     8     3     4    1
     9     4     5    2
    10     4     6    1
    11     6    12    1
    12     6    13    1
    13     6    14    1
