@<TRIPOS>MOLECULE
*****
 4 3 0 0 0
SMALL
GASTEIGER

@<TRIPOS>ATOM
      1 C1           0.6070    0.0000   -0.0000 C.2     0  UNK0        0.1071
      2 O1          -0.6000    0.0000    0.0000 O.2     0  UNK0       -0.3047
      3 H1           1.1470    0.9350    0.0020 H       0  UNK0        0.0988
      4 H2           1.1470   -0.9350    0.0020 H       0  UNK0        0.0988
@<TRIPOS>BOND
     1     1     2    2
     2     1     3    1
     3     1     4    1
