@<TRIPOS>MOLECULE
*****
 3 2 0 0 0
SMALL
GASTEIGER

@<TRIPOS>ATOM
      1 S1           0.0000   -0.0510   -0.0000 S.3     0  UNK0       -0.1960
      2 H2          -1.0300    0.8130    0.0000 H       0  UNK0        0.0980
      3 H1           1.0300    0.8130    0.0000 H       0  UNK0        0.0980
@<TRIPOS>BOND
     1     1     2    1
     2     1     3    1
