# Name: water

@<TRIPOS>MOLECULE
water
3 2 1 0 0
SMALL
NO_CHARGE

@<TRIPOS>ATOM
 1   O1    0.0        0.0        0.0        O     1
 2   H1    0.92919    0.02831    0.23960    H     1
 3   H2   -0.22394   -0.91133   -0.20231    H     1
@<TRIPOS>BOND
 1   1    2     1
 2   1    3     1
@<TRIPOS>SUBSTRUCTURE
 1   WATER1  1