# created with PyMOL 2.4.2
@<TRIPOS>MOLECULE
8418
24 26 1                 
SMALL
USER_CHARGES
@<TRIPOS>ATOM
1	 C01	-1.208	0.704	-0.000	C.2	1	UNK	0.000	
2	 C02	-1.208	-0.705	-0.000	C.2	1	UNK	0.000	
3	 C03	1.228	0.708	-0.000	C.2	1	UNK	0.000	
4	 C04	1.228	-0.708	-0.000	C.2	1	UNK	0.000	
5	 C05	0.006	1.400	-0.000	C.2	1	UNK	0.000	
6	 C06	0.006	-1.400	-0.000	C.2	1	UNK	0.000	
7	 C07	-2.493	1.423	-0.000	C.2	1	UNK	0.000	
8	 C08	-2.493	-1.423	-0.000	C.2	1	UNK	0.000	
9	 C09	2.454	1.393	-0.000	C.2	1	UNK	0.000	
10	 C10	2.454	-1.393	-0.000	C.2	1	UNK	0.000	
11	 C11	-3.640	0.725	-0.000	C.2	1	UNK	0.000	
12	 C12	-3.640	-0.724	-0.000	C.2	1	UNK	0.000	
13	 C13	3.663	0.696	-0.000	C.2	1	UNK	0.000	
14	 C14	3.663	-0.696	-0.000	C.2	1	UNK	0.000	
15	 H15	0.001	2.487	-0.000	 H	1	UNK	0.000	
16	 H16	0.001	-2.487	-0.000	 H	1	UNK	0.000	
17	 H17	-2.491	2.506	-0.000	 H	1	UNK	0.000	
18	 H18	-2.491	-2.506	-0.000	 H	1	UNK	0.000	
19	 H19	2.476	2.481	-0.000	 H	1	UNK	0.000	
20	 H20	2.476	-2.481	-0.000	 H	1	UNK	0.000	
21	 H21	-4.600	1.231	-0.000	 H	1	UNK	0.000	
22	 H22	-4.599	-1.231	-0.000	 H	1	UNK	0.000	
23	 H23	4.604	1.240	-0.000	 H	1	UNK	0.000	
24	 H24	4.604	-1.240	-0.000	 H	1	UNK	0.000	
@<TRIPOS>BOND
1 1 2 1
2 1 5 2
3 1 7 1
4 2 6 2
5 2 8 1
6 3 4 1
7 3 5 1
8 3 9 2
9 4 6 1
10 4 10 2
11 5 15 1
12 6 16 1
13 7 11 2
14 7 17 1
15 8 12 2
16 8 18 1
17 9 13 1
18 9 19 1
19 10 14 1
20 10 20 1
21 11 12 1
22 11 21 1
23 12 22 1
24 13 14 2
25 13 23 1
26 14 24 1
@<TRIPOS>SUBSTRUCTURE
1	UNK	1	GROUP	1 ****	UNK
