# created with PyMOL 2.4.2
@<TRIPOS>MOLECULE
241
12 12 1                 
SMALL
USER_CHARGES
@<TRIPOS>ATOM
1	 C01	2.866	1.395	0.000	C.2	1	UNK	0.000	
2	 C02	1.658	0.697	0.000	C.2	1	UNK	0.000	
3	 C03	4.074	0.697	0.000	C.2	1	UNK	0.000	
4	 C04	1.658	-0.697	0.000	C.2	1	UNK	0.000	
5	 C05	4.074	-0.697	0.000	C.2	1	UNK	0.000	
6	 C06	2.866	-1.395	0.000	C.2	1	UNK	0.000	
7	 H07	2.866	2.482	0.000	 H	1	UNK	0.000	
8	 H08	0.717	1.241	0.000	 H	1	UNK	0.000	
9	 H09	5.015	1.241	0.000	 H	1	UNK	0.000	
10	 H10	0.717	-1.241	0.000	 H	1	UNK	0.000	
11	 H11	5.015	-1.241	0.000	 H	1	UNK	0.000	
12	 H12	2.866	-2.482	0.000	 H	1	UNK	0.000	
@<TRIPOS>BOND
1 1 2 2
2 1 3 1
3 1 7 1
4 2 4 1
5 2 8 1
6 3 5 2
7 3 9 1
8 4 6 2
9 4 10 1
10 5 6 1
11 5 11 1
12 6 12 1
@<TRIPOS>SUBSTRUCTURE
1	UNK	1	GROUP	1 ****	UNK
