# created with PyMOL 2.5.4
@<TRIPOS>MOLECULE
9201
29 32 1                 
SMALL
USER_CHARGES
@<TRIPOS>ATOM
1	   C	-1.488	-2.301	-0.000	C.3	1	UNK1	0.000	
2	 C02	-0.073	-1.284	-0.000	C.2	1	UNK1	0.000	
3	 C03	-0.421	0.135	-0.000	C.2	1	UNK1	0.000	
4	 C04	-2.562	-0.863	-0.000	C.2	1	UNK1	0.000	
5	 C05	-1.872	0.364	-0.000	C.2	1	UNK1	0.000	
6	 C06	1.191	-1.724	-0.000	C.2	1	UNK1	0.000	
7	 C07	0.540	1.075	-0.000	C.2	1	UNK1	0.000	
8	 C08	2.275	-0.726	-0.000	C.2	1	UNK1	0.000	
9	 C09	1.954	0.652	-0.000	C.2	1	UNK1	0.000	
10	 C10	-2.577	1.562	-0.000	C.2	1	UNK1	0.000	
11	 C11	-3.950	-0.905	-0.000	C.2	1	UNK1	0.000	
12	 C12	3.614	-1.127	-0.000	C.2	1	UNK1	0.000	
13	 C13	2.981	1.602	-0.000	C.2	1	UNK1	0.000	
14	 C14	-3.975	1.524	-0.000	C.2	1	UNK1	0.000	
15	 C15	-4.657	0.299	-0.000	C.2	1	UNK1	0.000	
16	 C16	4.631	-0.170	-0.000	C.2	1	UNK1	0.000	
17	 C17	4.315	1.189	-0.000	C.2	1	UNK1	0.000	
18	 H01	-1.606	-3.066	0.767	 H	1	UNK1	0.000	
19	 H02	-1.584	-2.924	-0.889	 H	1	UNK1	0.000	
20	 H18	1.440	-2.778	-0.000	 H	1	UNK1	0.000	
21	 H19	0.321	2.136	-0.000	 H	1	UNK1	0.000	
22	 H20	-2.064	2.518	-0.000	 H	1	UNK1	0.000	
23	 H21	-4.478	-1.853	-0.000	 H	1	UNK1	0.000	
24	 H22	3.877	-2.182	-0.000	 H	1	UNK1	0.000	
25	 H23	2.755	2.665	-0.000	 H	1	UNK1	0.000	
26	 H24	-4.540	2.454	-0.000	 H	1	UNK1	0.000	
27	 H25	-5.744	0.287	-0.000	 H	1	UNK1	0.000	
28	 H26	5.671	-0.486	-0.000	 H	1	UNK1	0.000	
29	 H27	5.112	1.929	-0.000	 H	1	UNK1	0.000	
@<TRIPOS>BOND
1 1 18 1
2 1 19 1
3 1 2 1
4 2 3 1
5 2 6 2
6 3 5 1
7 3 7 2
8 1 4 1
9 4 5 1
10 4 11 2
11 5 10 2
12 6 8 1
13 6 20 1
14 7 9 1
15 7 21 1
16 8 9 1
17 8 12 2
18 9 13 2
19 10 14 1
20 10 22 1
21 11 15 1
22 11 23 1
23 12 16 1
24 12 24 1
25 13 17 1
26 13 25 1
27 14 15 2
28 14 26 1
29 15 27 1
30 16 17 2
31 16 28 1
32 17 29 1
@<TRIPOS>SUBSTRUCTURE
1	UNK1	1	GROUP	1 ****	UNK
