# created with PyMOL 2.5.2
@<TRIPOS>MOLECULE
280
34 39 1
SMALL
USER_CHARGES
@<TRIPOS>ATOM
      1 C01           0.7037    0.8745   0.0000 C.2     1  UNK0    0.000
      2 C02          -0.7038    0.8744   0.0000 C.2     1  UNK0    0.000
      3 C03           1.4122   -0.3468   0.0000 C.2     1  UNK0    0.000
      4 C04          -1.4122   -0.3469   0.0000 C.2     1  UNK0    0.000
      5 C05           0.7147   -1.5877   0.0000 C.2     1  UNK0    0.000
      6 C06          -0.7146   -1.5877   0.0000 C.2     1  UNK0    0.000
      7 C07           1.4062    2.1041   0.0000 C.2     1  UNK0    0.000
      8 C08          -1.4063    2.1040   0.0000 C.2     1  UNK0    0.000
      9 C09           2.8306   -0.3206   0.0000 C.2     1  UNK0    0.000
     10 C10          -2.8306   -0.3208   0.0000 C.2     1  UNK0    0.000
     11 C11           0.6975    3.3133   0.0000 C.2     1  UNK0    0.000
     12 C12          -0.6977    3.3133   0.0000 C.2     1  UNK0    0.000
     13 C13           2.8063    2.1065   0.0000 C.2     1  UNK0    0.000
     14 C14          -2.8065    2.1063   0.0000 C.2     1  UNK0    0.000
     15 C15           1.4835   -2.7780   0.0000 C.2     1  UNK0    0.000
     16 C16          -1.4833   -2.7781   0.0000 C.2     1  UNK0    0.000
     17 C17           3.5124    0.9045   0.0000 C.2     1  UNK0    0.000
     18 C18          -3.5125    0.9043   0.0000 C.2     1  UNK0    0.000
     19 C19           3.5499   -1.5193   0.0000 C.2     1  UNK0    0.000
     20 C20          -3.5498   -1.5196   0.0000 C.2     1  UNK0    0.000
     21 C21           2.8780   -2.7366   0.0000 C.2     1  UNK0    0.000
     22 C22          -2.8779   -2.7368   0.0000 C.2     1  UNK0    0.000
     23 H23           1.2231    4.2610   0.0000 H       1  UNK0    0.000
     24 H24          -1.2234    4.2609   0.0000 H       1  UNK0    0.000
     25 H25           3.3568    3.0400   0.0000 H       1  UNK0    0.000
     26 H26          -3.3570    3.0397   0.0000 H       1  UNK0    0.000
     27 H27           1.0417   -3.7598   0.0000 H       1  UNK0    0.000
     28 H28          -1.0415   -3.7599   0.0000 H       1  UNK0    0.000
     29 H29           4.5958    0.9331   0.0000 H       1  UNK0    0.000
     30 H30          -4.5958    0.9328   0.0000 H       1  UNK0    0.000
     31 H31           4.6336   -1.5158   0.0000 H       1  UNK0    0.000
     32 H32          -4.6335   -1.5161   0.0000 H       1  UNK0    0.000
     33 H33           3.4435   -3.6599   0.0000 H       1  UNK0    0.000
     34 H34          -3.4433   -3.6601   0.0000 H       1  UNK0    0.000
@<TRIPOS>BOND
     1     1     2    2
     2     1     3    2
     3     1     7    2
     4     2     4    2
     5     2     8    2
     6     3     5    2
     7     3     9    2
     8     4     6    2
     9     4    10    2
    10     5     6    2
    11     5    15    2
    12     6    16    2
    13     7    11    2
    14     7    13    2
    15     8    12    2
    16     8    14    2
    17     9    17    2
    18     9    19    2
    19    10    18    2
    20    10    20    2
    21    11    12    2
    22    11    23    1
    23    12    24    1
    24    13    17    2
    25    13    25    1
    26    14    18    2
    27    14    26    1
    28    15    21    2
    29    15    27    1
    30    16    22    2
    31    16    28    1
    32    17    29    1
    33    18    30    1
    34    19    21    2
    35    19    31    1
    36    20    22    2
    37    20    32    1
    38    21    33    1
    39    22    34    1
@<TRIPOS>SUBSTRUCTURE
1    UNK    1    GROUP    1 ****    UNK
