# created with PyMOL 2.4.2
@<TRIPOS>MOLECULE
242
32 36 1
SMALL
USER_CHARGES
@<TRIPOS>ATOM
      1 C01           0.3008   -0.2194    0.0000 C.2    1  UNK0    0.000
      2 C02           1.6912    0.0514    0.0000 C.2    1  UNK0    0.000
      3 C03          -0.6406    0.8476    0.0000 C.2    1  UNK0    0.000
      4 C04          -0.1372   -1.5624    0.0000 C.2    1  UNK0    0.000
      5 C05          -2.0368    0.5429    0.0000 C.2    1  UNK0    0.000
      6 C06           2.1523    1.3844    0.0000 C.2    1  UNK0    0.000
      7 C07           2.6244   -1.0124    0.0000 C.2    1  UNK0    0.000
      8 C08          -2.4494   -0.8199    0.0000 C.2    1  UNK0    0.000
      9 C09          -1.5025   -1.8492    0.0000 C.2    1  UNK0    0.000
     10 C10          -0.1420    2.1731    0.0000 C.2    1  UNK0    0.000
     11 C11           0.7993   -2.6081    0.0000 C.2    1  UNK0    0.000
     12 C12           1.2296    2.4324    0.0000 C.2    1  UNK0    0.000
     13 C13           2.1677   -2.3357    0.0000 C.2    1  UNK0    0.000
     14 C14           3.5310    1.6457    0.0000 C.2    1  UNK0    0.000
     15 C15           3.9991   -0.7323    0.0000 C.2    1  UNK0    0.000
     16 C16          -3.0457    1.5389    0.0000 C.2    1  UNK0    0.000
     17 C17          -3.8155   -1.1480    0.0000 C.2    1  UNK0    0.000
     18 C18           4.4469    0.5908    0.0000 C.2    1  UNK0    0.000
     19 C19          -4.3986    1.1914    0.0000 C.2    1  UNK0    0.000
     20 C20         -4.7824   -0.1460     0.0000 C.2    1  UNK0    0.000
     21 H21          -1.8320   -2.8833    0.0000 H      1  UNK0    0.000
     22 H22          -0.7853    3.0367    0.0000 H      1  UNK0    0.000
     23 H23           0.4723   -3.6413    0.0000 H      1  UNK0    0.000
     24 H24           1.5695    3.4617    0.0000 H      1  UNK0    0.000
     25 H25           2.8694   -3.1615    0.0000 H      1  UNK0    0.000
     26 H26           3.9003    2.6644    0.0000 H      1  UNK0    0.000
     27 H27           4.7266   -1.5353    0.0000 H      1  UNK0    0.000
     28 H28          -2.8266    2.5932    0.0000 H      1  UNK0    0.000
     29 H29          -4.1369   -2.1831    0.0000 H      1  UNK0    0.000
     30 H30           5.5089    0.7999    0.0000 H      1  UNK0    0.000
     31 H31          -5.1545    1.9665    0.0000 H      1  UNK0    0.000
     32 H32          -5.8328   -0.4073    0.0000 H      1  UNK0    0.000
@<TRIPOS>BOND
     1     1     2   2
     2     1     3   2
     3     1     4   2
     4     2     6   2
     5     2     7   2
     6     3     5   2
     7     3    10   2
     8     4     9   2
     9     4    11   2
    10     5     8   2
    11     5    16   2
    12     6    12   2
    13     6    14   2
    14     7    13   2
    15     7    15   2
    16     8     9   2
    17     8    17   2
    18     9    21   1
    19    10    12   2
    20    10    22   1
    21    11    13   2
    22    11    23   1
    23    12    24   1
    24    13    25   1
    25    14    18   2
    26    14    26   1
    27    15    18   2
    28    15    27   1
    29    16    19   2
    30    16    28   1
    31    17    20   2
    32    17    29   1
    33    18    30   1
    34    19    20   2
    35    19    31   1
    36    20    32   1
@<TRIPOS>SUBSTRUCTURE
1    UNK    1    GROUP    1 ****    UNK
