# created with PyMOL 2.5.4
@<TRIPOS>MOLECULE
9195
29 32 1                 
SMALL
USER_CHARGES
@<TRIPOS>ATOM
1	   C	0.711	1.904	-0.000	C.3	1	UNK1	0.000	
2	 C01	-0.290	0.498	-0.000	C.2	1	UNK1	0.000	
3	 C02	0.498	-0.659	-0.000	C.2	1	UNK1	0.000	
4	 C03	2.167	1.007	-0.000	C.2	1	UNK1	0.000	
5	 C04	1.921	-0.363	-0.000	C.2	1	UNK1	0.000	
6	 C05	-1.723	0.428	-0.000	C.2	1	UNK1	0.000	
7	 C06	-2.341	-0.845	-0.000	C.2	1	UNK1	0.000	
8	 C07	-0.164	-1.913	-0.000	C.2	1	UNK1	0.000	
9	 C08	-1.558	-1.997	-0.000	C.2	1	UNK1	0.000	
10	 C09	3.478	1.527	-0.000	C.2	1	UNK1	0.000	
11	 C10	3.043	-1.235	-0.000	C.2	1	UNK1	0.000	
12	 C11	-2.531	1.587	-0.000	C.2	1	UNK1	0.000	
13	 C12	-3.743	-0.926	-0.000	C.2	1	UNK1	0.000	
14	 C13	4.559	0.643	-0.000	C.2	1	UNK1	0.000	
15	 C14	4.345	-0.726	-0.000	C.2	1	UNK1	0.000	
16	 C15	-3.923	1.483	-0.000	C.2	1	UNK1	0.000	
17	 C16	-4.527	0.229	-0.000	C.2	1	UNK1	0.000	
18	 H01	0.561	2.646	0.784	 H	1	UNK1	0.000	
19	 H02	0.586	2.522	-0.889	 H	1	UNK1	0.000	
20	 H16	0.419	-2.831	-0.000	 H	1	UNK1	0.000	
21	 H17	-2.022	-2.981	-0.000	 H	1	UNK1	0.000	
22	 H18	3.647	2.600	-0.000	 H	1	UNK1	0.000	
23	 H19	2.893	-2.311	-0.000	 H	1	UNK1	0.000	
24	 H20	-2.089	2.580	-0.000	 H	1	UNK1	0.000	
25	 H21	-4.239	-1.894	-0.000	 H	1	UNK1	0.000	
26	 H22	5.573	1.035	-0.000	 H	1	UNK1	0.000	
27	 H23	5.191	-1.409	-0.000	 H	1	UNK1	0.000	
28	 H24	-4.534	2.382	-0.000	 H	1	UNK1	0.000	
29	 H25	-5.611	0.149	-0.000	 H	1	UNK1	0.000	
@<TRIPOS>BOND
1 1 18 1
2 1 19 1
3 1 2 1
4 2 3 2
5 2 6 1
6 3 5 1
7 3 8 1
8 1 4 1
9 4 5 1
10 4 10 2
11 5 11 2
12 6 7 1
13 6 12 2
14 7 9 1
15 7 13 2
16 8 9 2
17 8 20 1
18 9 21 1
19 10 14 1
20 10 22 1
21 11 15 1
22 11 23 1
23 12 16 1
24 12 24 1
25 13 17 1
26 13 25 1
27 14 15 2
28 14 26 1
29 15 27 1
30 16 17 2
31 16 28 1
32 17 29 1
@<TRIPOS>SUBSTRUCTURE
1	UNK1	1	GROUP	1 ****	UNK
