# created with PyMOL 2.5.5
@<TRIPOS>MOLECULE
84
108 138 1               
SMALL
USER_CHARGES
@<TRIPOS>ATOM
1	   C	-0.367	-7.845	-0.020	C.3	1	UNK0	0.000	
2	   C	-1.612	-7.301	-0.015	C.3	1	UNK0	0.000	
3	   C	-1.794	-5.909	-0.010	C.3	1	UNK0	0.000	
4	   C	-3.135	-5.321	-0.005	C.3	1	UNK0	0.000	
5	   C	-4.283	-6.129	-0.007	C.3	1	UNK0	0.000	
6	   C	-5.526	-5.581	-0.003	C.3	1	UNK0	0.000	
7	   C	-5.694	-4.183	0.001	C.3	1	UNK0	0.000	
8	   C	-4.556	-3.347	0.003	C.3	1	UNK0	0.000	
9	   C	-3.265	-3.917	-0.001	C.3	1	UNK0	0.000	
10	   C	-2.122	-3.081	0.001	C.3	1	UNK0	0.000	
11	   C	-0.832	-3.647	-0.002	C.3	1	UNK0	0.000	
12	   C	-0.673	-5.054	-0.009	C.3	1	UNK0	0.000	
13	   C	0.621	-5.619	-0.012	C.3	1	UNK0	0.000	
14	   C	0.777	-7.022	-0.019	C.3	1	UNK0	0.000	
15	   C	2.072	-7.575	-0.022	C.3	1	UNK0	0.000	
16	   C	3.168	-6.773	-0.017	C.3	1	UNK0	0.000	
17	   C	3.040	-5.375	-0.010	C.3	1	UNK0	0.000	
18	   C	4.221	-4.507	-0.005	C.3	1	UNK0	0.000	
19	   C	5.517	-5.046	-0.008	C.3	1	UNK0	0.000	
20	   C	6.611	-4.240	-0.003	C.3	1	UNK0	0.000	
21	   C	6.469	-2.839	0.005	C.3	1	UNK0	0.000	
22	   C	5.176	-2.272	0.008	C.3	1	UNK0	0.000	
23	   C	4.040	-3.109	0.003	C.3	1	UNK0	0.000	
24	   C	2.742	-2.544	0.006	C.3	1	UNK0	0.000	
25	   C	1.607	-3.378	0.002	C.3	1	UNK0	0.000	
26	   C	1.760	-4.785	-0.008	C.3	1	UNK0	0.000	
27	   C	0.310	-2.810	0.000	C.3	1	UNK0	0.000	
28	   C	0.155	-1.407	0.003	C.3	1	UNK0	0.000	
29	   C	-1.141	-0.838	0.003	C.3	1	UNK0	0.000	
30	   C	-2.278	-1.674	0.006	C.3	1	UNK0	0.000	
31	   C	-3.575	-1.103	0.008	C.3	1	UNK0	0.000	
32	   C	-4.714	-1.944	0.007	C.3	1	UNK0	0.000	
33	   C	-6.015	-1.401	0.009	C.3	1	UNK0	0.000	
34	   C	-6.175	0.056	0.012	C.3	1	UNK0	0.000	
35	   C	-7.450	0.645	0.014	C.3	1	UNK0	0.000	
36	   C	-7.596	1.996	0.015	C.3	1	UNK0	0.000	
37	   C	-6.469	2.841	0.014	C.3	1	UNK0	0.000	
38	   C	-5.176	2.273	0.013	C.3	1	UNK0	0.000	
39	   C	-5.024	0.869	0.012	C.3	1	UNK0	0.000	
40	   C	-3.729	0.297	0.007	C.3	1	UNK0	0.000	
41	   C	-2.588	1.136	0.004	C.3	1	UNK0	0.000	
42	   C	-1.296	0.568	0.007	C.3	1	UNK0	0.000	
43	   C	-0.156	1.406	0.004	C.3	1	UNK0	0.000	
44	   C	-0.310	2.809	-0.001	C.3	1	UNK0	0.000	
45	   C	-1.607	3.377	-0.004	C.3	1	UNK0	0.000	
46	   C	-1.759	4.785	-0.009	C.3	1	UNK0	0.000	
47	   C	-3.039	5.375	-0.013	C.3	1	UNK0	0.000	
48	   C	-4.220	4.508	-0.010	C.3	1	UNK0	0.000	
49	   C	-4.040	3.110	0.013	C.3	1	UNK0	0.000	
50	   C	-2.743	2.543	0.006	C.3	1	UNK0	0.000	
51	   C	-5.516	5.048	-0.014	C.3	1	UNK0	0.000	
52	   C	-6.610	4.242	0.014	C.3	1	UNK0	0.000	
53	   C	-3.166	6.773	-0.018	C.3	1	UNK0	0.000	
54	   C	-2.070	7.576	-0.021	C.3	1	UNK0	0.000	
55	   C	-0.774	7.022	-0.017	C.3	1	UNK0	0.000	
56	   C	-0.620	5.619	-0.012	C.3	1	UNK0	0.000	
57	   C	0.673	5.053	-0.009	C.3	1	UNK0	0.000	
58	   C	0.831	3.646	-0.003	C.3	1	UNK0	0.000	
59	   C	2.121	3.080	0.000	C.3	1	UNK0	0.000	
60	   C	3.264	3.916	-0.001	C.3	1	UNK0	0.000	
61	   C	3.135	5.319	-0.007	C.3	1	UNK0	0.000	
62	   C	1.794	5.908	-0.011	C.3	1	UNK0	0.000	
63	   C	1.614	7.301	-0.017	C.3	1	UNK0	0.000	
64	   C	0.369	7.845	-0.020	C.3	1	UNK0	0.000	
65	   C	4.282	6.129	-0.009	C.3	1	UNK0	0.000	
66	   C	5.526	5.581	-0.005	C.3	1	UNK0	0.000	
67	   C	5.693	4.182	0.000	C.3	1	UNK0	0.000	
68	   C	4.556	3.347	0.003	C.3	1	UNK0	0.000	
69	   C	4.713	1.944	0.009	C.3	1	UNK0	0.000	
70	   C	3.573	1.103	0.012	C.3	1	UNK0	0.000	
71	   C	2.277	1.673	0.006	C.3	1	UNK0	0.000	
72	   C	1.140	0.837	0.007	C.3	1	UNK0	0.000	
73	   C	1.295	-0.569	0.007	C.3	1	UNK0	0.000	
74	   C	2.587	-1.136	0.014	C.3	1	UNK0	0.000	
75	   C	3.728	-0.297	0.019	C.3	1	UNK0	0.000	
76	   C	5.023	-0.869	0.016	C.3	1	UNK0	0.000	
77	   C	6.174	-0.055	0.020	C.3	1	UNK0	0.000	
78	   C	6.013	1.401	0.012	C.3	1	UNK0	0.000	
79	   C	7.129	2.254	0.016	C.3	1	UNK0	0.000	
80	   C	6.978	3.604	0.004	C.3	1	UNK0	0.000	
81	   C	7.449	-0.643	0.018	C.3	1	UNK0	0.000	
82	   C	7.597	-1.994	0.009	C.3	1	UNK0	0.000	
83	   C	-7.130	-2.254	0.009	C.3	1	UNK0	0.000	
84	   C	-6.979	-3.604	0.005	C.3	1	UNK0	0.000	
85	   H	-0.252	-8.919	-0.019	 H	1	UNK0	0.000	
86	   H	-2.475	-7.950	-0.016	 H	1	UNK0	0.000	
87	   H	-4.176	-7.204	-0.011	 H	1	UNK0	0.000	
88	   H	-6.394	-6.224	-0.004	 H	1	UNK0	0.000	
89	   H	2.195	-8.648	-0.027	 H	1	UNK0	0.000	
90	   H	4.153	-7.217	-0.019	 H	1	UNK0	0.000	
91	   H	5.647	-6.118	-0.013	 H	1	UNK0	0.000	
92	   H	7.598	-4.678	-0.006	 H	1	UNK0	0.000	
93	   H	-8.327	0.015	0.014	 H	1	UNK0	0.000	
94	   H	-8.587	2.426	0.016	 H	1	UNK0	0.000	
95	   H	-5.645	6.120	-0.018	 H	1	UNK0	0.000	
96	   H	-7.597	4.680	0.011	 H	1	UNK0	0.000	
97	   H	-4.150	7.218	-0.021	 H	1	UNK0	0.000	
98	   H	-2.192	8.649	-0.025	 H	1	UNK0	0.000	
99	   H	2.478	7.949	-0.019	 H	1	UNK0	0.000	
100	   H	0.255	8.919	-0.025	 H	1	UNK0	0.000	
101	   H	4.175	7.203	-0.014	 H	1	UNK0	0.000	
102	   H	6.393	6.224	-0.007	 H	1	UNK0	0.000	
103	   H	8.122	1.830	0.025	 H	1	UNK0	0.000	
104	   H	7.851	4.240	0.007	 H	1	UNK0	0.000	
105	   H	8.326	-0.013	0.021	 H	1	UNK0	0.000	
106	   H	8.587	-2.424	0.007	 H	1	UNK0	0.000	
107	   H	-8.123	-1.830	0.010	 H	1	UNK0	0.000	
108	   H	-7.852	-4.240	0.004	 H	1	UNK0	0.000	
@<TRIPOS>BOND
1 1 2 1
2 1 14 1
3 1 85 1
4 2 3 1
5 2 86 1
6 3 4 1
7 3 12 1
8 4 5 1
9 4 9 1
10 5 6 1
11 5 87 1
12 6 7 1
13 6 88 1
14 7 8 1
15 7 84 1
16 8 9 1
17 8 32 1
18 9 10 1
19 10 11 1
20 10 30 1
21 11 12 1
22 11 27 1
23 12 13 1
24 13 14 1
25 13 26 1
26 14 15 1
27 15 16 1
28 15 89 1
29 16 17 1
30 16 90 1
31 17 18 1
32 17 26 1
33 18 19 1
34 18 23 1
35 19 20 1
36 19 91 1
37 20 21 1
38 20 92 1
39 21 22 1
40 21 82 1
41 22 23 1
42 22 76 1
43 23 24 1
44 24 25 1
45 24 74 1
46 25 26 1
47 25 27 1
48 27 28 1
49 28 29 1
50 28 73 1
51 29 30 1
52 29 42 1
53 30 31 1
54 31 32 1
55 31 40 1
56 32 33 1
57 33 34 1
58 33 83 1
59 34 35 1
60 34 39 1
61 35 36 1
62 35 93 1
63 36 37 1
64 36 94 1
65 37 38 1
66 37 52 1
67 38 39 1
68 38 49 1
69 39 40 1
70 40 41 1
71 41 42 1
72 41 50 1
73 42 43 1
74 43 44 1
75 43 72 1
76 44 45 1
77 44 58 1
78 45 46 1
79 45 50 1
80 46 47 1
81 46 56 1
82 47 48 1
83 47 53 1
84 48 49 1
85 48 51 1
86 49 50 1
87 51 52 1
88 51 95 1
89 52 96 1
90 53 54 1
91 53 97 1
92 54 55 1
93 54 98 1
94 55 56 1
95 55 64 1
96 56 57 1
97 57 58 1
98 57 62 1
99 58 59 1
100 59 60 1
101 59 71 1
102 60 61 1
103 60 68 1
104 61 62 1
105 61 65 1
106 62 63 1
107 63 64 1
108 63 99 1
109 64 100 1
110 65 66 1
111 65 101 1
112 66 67 1
113 66 102 1
114 67 68 1
115 67 80 1
116 68 69 1
117 69 70 1
118 69 78 1
119 70 71 1
120 70 75 1
121 71 72 1
122 72 73 1
123 73 74 1
124 74 75 1
125 75 76 1
126 76 77 1
127 77 78 1
128 77 81 1
129 78 79 1
130 79 80 1
131 79 103 1
132 80 104 1
133 81 82 1
134 81 105 1
135 82 106 1
136 83 84 1
137 83 107 1
138 84 108 1
@<TRIPOS>SUBSTRUCTURE
1	UNK0	1	GROUP	1 ****	UNK
