# created with PyMOL 2.4.2
@<TRIPOS>MOLECULE
218-01-9-3d
30 33 1                 
SMALL
USER_CHARGES
@<TRIPOS>ATOM
1	 C01	1.270	2.097	0.522	C.2	1	UNK0	0.000	
2	 C02	0.017	2.776	0.496	C.2	1	UNK0	0.000	
3	 C03	2.512	2.839	0.532	C.2	1	UNK0	0.000	
4	 C04	1.235	0.687	0.540	C.2	1	UNK0	0.000	
5	 C05	-1.224	2.034	0.486	C.2	1	UNK0	0.000	
6	 C06	0.053	4.186	0.478	C.2	1	UNK0	0.000	
7	 C07	2.473	4.253	0.514	C.2	1	UNK0	0.000	
8	 C08	3.805	2.252	0.560	C.2	1	UNK0	0.000	
9	 C09	0.041	-0.034	0.532	C.2	1	UNK0	0.000	
10	 C10	-1.186	0.620	0.505	C.2	1	UNK0	0.000	
11	 C11	-2.519	2.621	0.458	C.2	1	UNK0	0.000	
12	 C12	1.246	4.907	0.486	C.2	1	UNK0	0.000	
13	 C13	3.657	5.011	0.522	C.2	1	UNK0	0.000	
14	 C14	4.979	3.013	0.568	C.2	1	UNK0	0.000	
15	 C15	-2.370	-0.139	0.496	C.2	1	UNK0	0.000	
16	 C16	-3.692	1.859	0.450	C.2	1	UNK0	0.000	
17	 C17	4.904	4.396	0.549	C.2	1	UNK0	0.000	
18	 C18	-3.617	0.477	0.469	C.2	1	UNK0	0.000	
19	 H19	2.150	0.103	0.562	 H	1	UNK0	0.000	
20	 H20	-0.862	4.770	0.456	 H	1	UNK0	0.000	
21	 H21	3.929	1.173	0.576	 H	1	UNK0	0.000	
22	 H22	0.091	-1.121	0.547	 H	1	UNK0	0.000	
23	 H23	-2.641	3.700	0.442	 H	1	UNK0	0.000	
24	 H24	1.196	5.993	0.472	 H	1	UNK0	0.000	
25	 H25	3.615	6.099	0.507	 H	1	UNK0	0.000	
26	 H26	5.946	2.519	0.589	 H	1	UNK0	0.000	
27	 H27	-2.327	-1.226	0.511	 H	1	UNK0	0.000	
28	 H28	-4.660	2.354	0.429	 H	1	UNK0	0.000	
29	 H29	5.810	4.996	0.555	 H	1	UNK0	0.000	
30	 H30	-4.523	-0.123	0.463	 H	1	UNK0	0.000	
@<TRIPOS>BOND
1 1 2 2
2 1 3 1
3 1 4 1
4 2 5 1
5 2 6 1
6 3 7 1
7 3 8 2
8 4 9 2
9 4 19 1
10 5 10 2
11 5 11 1
12 6 12 2
13 6 20 1
14 7 12 1
15 7 13 2
16 8 14 1
17 8 21 1
18 9 10 1
19 9 22 1
20 10 15 1
21 11 16 2
22 11 23 1
23 12 24 1
24 13 17 1
25 13 25 1
26 14 17 2
27 14 26 1
28 15 18 2
29 15 27 1
30 16 18 1
31 16 28 1
32 17 29 1
33 18 30 1
@<TRIPOS>SUBSTRUCTURE
1	UNK0	1	GROUP	1 ****	UNK
