# created with PyMOL 2.4.2
@<TRIPOS>MOLECULE
565
58 71 1
SMALL
USER_CH2GES
@<TRIPOS>ATOM
      1 C01          -0.7049    0.0000    0.0000 C.2    1  UNK	0.000
      2 C02           0.7049   -0.0000    0.0000 C.2    1  UNK	0.000
      3 C03          -1.4098   -1.2219    0.0000 C.2    1  UNK	0.000
      4 C04          -1.4098    1.2219    0.0000 C.2    1  UNK	0.000
      5 C05           1.4098   -1.2219    0.0000 C.2    1  UNK	0.000
      6 C06           1.4098    1.2219    0.0000 C.2    1  UNK	0.000
      7 C07          -0.7060   -2.4439    0.0000 C.2    1  UNK	0.000
      8 C08          -0.7059    2.4439    0.0000 C.2    1  UNK	0.000
      9 C09           0.7059   -2.4439    0.0000 C.2    1  UNK	0.000
     10 C10           0.7060    2.4439    0.0000 C.2    1  UNK	0.000
     11 C11          -2.8194   -1.2230    0.0000 C.2    1  UNK	0.000
     12 C12          -2.8194    1.2231    0.0000 C.2    1  UNK	0.000
     13 C13           2.8194   -1.2231    0.0000 C.2    1  UNK	0.000
     14 C14           2.8194    1.2230    0.0000 C.2    1  UNK	0.000
     15 C15          -3.5246    0.0000    0.0000 C.2    1  UNK	0.000
     16 C16           3.5246   -0.0000    0.0000 C.2    1  UNK	0.000
     17 C17          -1.4128   -3.6668    0.0000 C.2    1  UNK	0.000
     18 C18          -1.4127    3.6669    0.0000 C.2    1  UNK	0.000
     19 C19           1.4127   -3.6669    0.0000 C.2    1  UNK	0.000
     20 C20           1.4128    3.6668    0.0000 C.2    1  UNK	0.000
     21 C21          -3.5256   -2.4465    0.0000 C.2    1  UNK	0.000
     22 C22          -3.5256    2.4466    0.0000 C.2    1  UNK	0.000
     23 C23           3.5256   -2.4466    0.0000 C.2    1  UNK	0.000
     24 C24           3.5256    2.4465    0.0000 C.2    1  UNK	0.000
     25 C25          -4.9363    0.0000    0.0000 C.2    1  UNK	0.000
     26 C26           4.9363   -0.0000    0.0000 C.2    1  UNK	0.000
     27 C27          -2.8179   -3.6604    0.0000 C.2    1  UNK	0.000
     28 C28          -2.8178    3.6604    0.0000 C.2    1  UNK	0.000
     29 C29           2.8178   -3.6604    0.0000 C.2    1  UNK	0.000
     30 C30           2.8179    3.6604    0.0000 C.2    1  UNK	0.000
     31 C31           0.6998    4.8760    0.0000 C.2    1  UNK	0.000
     32 C32          -0.6998    4.8760    0.0000 C.2    1  UNK	0.000
     33 C33          -0.6998   -4.8760    0.0000 C.2    1  UNK	0.000
     34 C34           0.6998   -4.8760    0.0000 C.2    1  UNK	0.000
     35 C35          -4.9293   -2.4333    0.0000 C.2    1  UNK	0.000
     36 C36          -4.9293    2.4333    0.0000 C.2    1  UNK	0.000
     37 C37           4.9293   -2.4333    0.0000 C.2    1  UNK	0.000
     38 C38           4.9293    2.4333    0.0000 C.2    1  UNK	0.000
     39 C39          -5.6285   -1.2208    0.0000 C.2    1  UNK	0.000
     40 C40          -5.6284    1.2209    0.0000 C.2    1  UNK	0.000
     41 C41           5.6284   -1.2209    0.0000 C.2    1  UNK	0.000
     42 C42           5.6285    1.2208    0.0000 C.2    1  UNK	0.000
     43 H43          -3.3604   -4.5997    0.0000 H       1  UNK	0.000
     44 H44          -3.3603    4.5997    0.0000 H       1  UNK	0.000
     45 H45           3.3603   -4.5997    0.0000 H       1  UNK	0.000
     46 H46           3.3604    4.5997    0.0000 H       1  UNK	0.000
     47 H47           1.2251    5.8236    0.0000 H       1  UNK	0.000
     48 H48         -1.2250    5.8237     0.0000 H       1  UNK	0.000
     49 H49          -1.2251   -5.8236    0.0000 H       1  UNK	0.000
     50 H50           1.2250   -5.8237    0.0000 H       1  UNK	0.000
     51 H51          -5.4878   -3.3618    0.0000 H       1  UNK	0.000
     52 H52          -5.4877    3.3619    0.0000 H       1  UNK	0.000
     53 H53           5.4877   -3.3619    0.0000 H       1  UNK	0.000
     54 H54           5.4878    3.3618    0.0000 H       1  UNK	0.000
     55 H55          -6.7118   -1.2382    0.0000 H       1  UNK	0.000
     56 H56          -6.7118    1.2383    0.0000 H       1  UNK	0.000
     57 H57           6.7118   -1.2384    0.0000 H       1  UNK	0.000
     58 H58           6.7118    1.2382    0.0000 H       1  UNK	0.000
@<TRIPOS>BOND
     1     1     2   2
     2     1     3   2
     3     1     4   2
     4     2     5   2
     5     2     6   2
     6     3     7   2
     7     3    11   2
     8     4     8   2
     9     4    12   2
    10     5     9   2
    11     5    13   2
    12     6    10   2
    13     6    14   2
    14     7     9   2
    15     7    17   2
    16     8    10   2
    17     8    18   2
    18     9    19   2
    19    10    20   2
    20    11    15   2
    21    11    21   2
    22    12    15   2
    23    12    22   2
    24    13    16   2
    25    13    23   2
    26    14    16   2
    27    14    24   2
    28    15    25   2
    29    16    26   2
    30    17    27   2
    31    17    33   2
    32    18    28   2
    33    18    32   2
    34    19    29   2
    35    19    34   2
    36    20    30   2
    37    20    31   2
    38    21    27   2
    39    21    35   2
    40    22    28   2
    41    22    36   2
    42    23    29   2
    43    23    37   2
    44    24    30   2
    45    24    38   2
    46    25    39   2
    47    25    40   2
    48    26    41   2
    49    26    42   2
    50    27    43   1
    51    28    44   1
    52    29    45   1
    53    30    46   1
    54    31    32   2
    55    31    47   1
    56    32    48   1
    57    33    34   2
    58    33    49   1
    59    34    50   1
    60    35    39   2
    61    35    51   1
    62    36    40   2
    63    36    52   1
    64    37    41   2
    65    37    53   1
    66    38    42   2
    67    38    54   1
    68    39    55   1
    69    40    56   1
    70    41    57   1
    71    42    58   1
@<TRIPOS>SUBSTRUCTURE
1	UNK	1	GROUP	1 ****	UNK
