@<TRIPOS>MOLECULE
767
72 90 1
SMALL
USER_CH2GES
@<TRIPOS>ATOM
      1 C01          -0.0181    1.4054    0.0046 C.2    1  UNK0	0.000
      2 C02           0.0010   -0.0049   -0.0027 C.2    1  UNK0	0.000
      3 C03           1.1936    2.1271   -0.0024 C.2    1  UNK0	0.000
      4 C04           1.2319   -0.6934   -0.0170 C.2    1  UNK0	0.000
      5 C05           2.4245    1.4386   -0.0168 C.2    1  UNK0	0.000
      6 C06           2.4436    0.0283   -0.0241 C.2    1  UNK0	0.000
      7 C07          -1.2108   -0.7266    0.0043 C.2    1  UNK0	0.000
      8 C08          -1.2490    2.0939    0.0188 C.2    1  UNK0	0.000
      9 C09           1.2510   -2.1037   -0.0243 C.2    1  UNK0	0.000
     10 C10           1.1745    3.5374    0.0049 C.2    1  UNK0	0.000
     11 C11           3.6745   -0.6602   -0.0385 C.2    1  UNK0	0.000
     12 C12           3.6363    2.1603   -0.0238 C.2    1  UNK0	0.000
     13 C13          -1.1926   -2.1368   -0.0029 C.2    1  UNK0	0.000
     14 C14          -1.2691    3.5041    0.0261 C.2    1  UNK0	0.000
     15 C15          -2.4420   -0.0390    0.0186 C.2    1  UNK0	0.000
     16 C16          -2.4611    1.3731    0.0258 C.2    1  UNK0	0.000
     17 C17           2.4812   -2.7930   -0.0387 C.2    1  UNK0	0.000
     18 C18           2.3857    4.2599   -0.0020 C.2    1  UNK0	0.000
     19 C19           0.0398   -2.8262   -0.0172 C.2    1  UNK0	0.000
     20 C20          -0.0557    4.2267    0.0192 C.2    1  UNK0	0.000
     21 C21           4.8866    0.0606   -0.0455 C.2    1  UNK0	0.000
     22 C22           4.8675    1.4727   -0.0381 C.2    1  UNK0	0.000
     23 C23           3.6946   -2.0703   -0.0458 C.2    1  UNK0	0.000
     24 C24           3.6181    3.5705   -0.0164 C.2    1  UNK0	0.000
     25 C25          -2.5020    4.1930    0.0404 C.2    1  UNK0	0.000
     26 C26          -2.4065   -2.8590    0.0042 C.2    1  UNK0	0.000
     27 C27          -3.6934    2.0632    0.0401 C.2    1  UNK0	0.000
     28 C28          -3.6551   -0.7624    0.0257 C.2    1  UNK0	0.000
     29 C29           2.4997   -4.2053   -0.0460 C.2    1  UNK0	0.000
     30 C30           2.3659    5.6722    0.0053 C.2    1  UNK0	0.000
     31 C31          -0.0742    5.6391    0.0265 C.2    1  UNK0	0.000
     32 C32           0.0596   -4.2385   -0.0245 C.2    1  UNK0	0.000
     33 C33           6.1189   -0.6295   -0.0600 C.2    1  UNK0	0.000
     34 C34           6.0806    2.1961   -0.0451 C.2    1  UNK0	0.000
     35 C35           4.9275   -2.7593   -0.0603 C.2    1  UNK0	0.000
     36 C36           4.8320    4.2927   -0.0234 C.2    1  UNK0	0.000
     37 C37          -3.7060    3.4684    0.0472 C.2    1  UNK0	0.000
     38 C38          -3.6297   -2.1674    0.0184 C.2    1  UNK0	0.000
     39 C39           1.1364    6.3526    0.0195 C.2    1  UNK0	0.000
     40 C40           1.2891   -4.9189   -0.0388 C.2    1  UNK0	0.000
     41 C41           6.0552    3.6011   -0.0377 C.2    1  UNK0	0.000
     42 C42           6.1315   -2.0347   -0.0673 C.2    1  UNK0	0.000
     43 C43          -2.3744   -4.2623   -0.0031 C.2    1  UNK0	0.000
     44 C44          -2.5080    5.5967    0.0475 C.2    1  UNK0	0.000
     45 C45          -4.8737   -0.0658    0.0398 C.2    1  UNK0	0.000
     46 C46          -4.8927    1.3338    0.0470 C.2    1  UNK0	0.000
     47 C47           3.7310   -4.8792   -0.0604 C.2    1  UNK0	0.000
     48 C48           3.5784    6.3793   -0.0017 C.2    1  UNK0	0.000
     49 C49          -1.1529   -4.9456   -0.0173 C.2    1  UNK0	0.000
     50 C50          -1.3055    6.3129    0.0406 C.2    1  UNK0	0.000
     51 C51           7.3182    0.1000   -0.0669 C.2    1  UNK0	0.000
     52 C52           7.2992    1.4995   -0.0595 C.2    1  UNK0	0.000
     53 C53           4.9335   -4.1630   -0.0674 C.2    1  UNK0	0.000
     54 C54           4.7999    5.6960   -0.0159 C.2    1  UNK0	0.000
     55 H55          -4.6526    3.9979    0.0582 H       1  UNK0	0.000
     56 H56          -4.5616   -2.7224    0.0239 H       1  UNK0	0.000
     57 H57           1.1217    7.4372    0.0252 H       1  UNK0	0.000
     58 H58           1.3038   -6.0035   -0.0444 H       1  UNK0	0.000
     59 H59           6.9871    4.1561   -0.0431 H       1  UNK0	0.000
     60 H60           7.0781   -2.5642   -0.0784 H       1  UNK0	0.000
     61 H61          -3.2955   -4.8330    0.0022 H       1  UNK0	0.000
     62 H62          -3.4442    6.1421    0.0584 H       1  UNK0	0.000
     63 H63          -5.8141   -0.6039    0.0454 H       1  UNK0	0.000
     64 H64          -5.8473    1.8461    0.0579 H       1  UNK0	0.000
     65 H65           3.5827    7.4628    0.0038 H       1  UNK0	0.000
     66 H66           3.7646   -5.9622   -0.0661 H       1  UNK0	0.000
     67 H67          -1.1572   -6.0291   -0.0227 H       1  UNK0	0.000
     68 H68          -1.3391    7.3959    0.0464 H       1  UNK0	0.000
     69 H69           8.2396    2.0376   -0.0651 H       1  UNK0	0.000
     70 H70           8.2728   -0.4124   -0.0779 H       1  UNK0	0.000
     71 H71           5.7210    6.2667   -0.0210 H       1  UNK0	0.000
     72 H72           5.8697   -4.7084   -0.0785 H       1  UNK0	0.000
@<TRIPOS>BOND
     1     1     2   2
     2     1     3   2
     3     1     8   2
     4     2     4   2
     5     2     7   2
     6     3     5   2
     7     3    10   2
     8     4     6   2
     9     4     9   2
    10     5     6   2
    11     5    12   2
    12     6    11   2
    13     7    13   2
    14     7    15   2
    15     8    14   2
    16     8    16   2
    17     9    17   2
    18     9    19   2
    19    10    18   2
    20    10    20   2
    21    11    21   2
    22    11    23   2
    23    12    22   2
    24    12    24   2
    25    13    19   2
    26    13    26   2
    27    14    20   2
    28    14    25   2
    29    15    16   2
    30    15    28   2
    31    16    27   2
    32    17    23   2
    33    17    29   2
    34    18    24   2
    35    18    30   2
    36    19    32   2
    37    20    31   2
    38    21    22   2
    39    21    33   2
    40    22    34   2
    41    23    35   2
    42    24    36   2
    43    25    37   2
    44    25    44   2
    45    26    38   2
    46    26    43   2
    47    27    37   2
    48    27    46   2
    49    28    38   2
    50    28    45   2
    51    29    40   2
    52    29    47   2
    53    30    39   2
    54    30    48   2
    55    31    39   2
    56    31    50   2
    57    32    40   2
    58    32    49   2
    59    33    42   2
    60    33    51   2
    61    34    41   2
    62    34    52   2
    63    35    42   2
    64    35    53   2
    65    36    41   2
    66    36    54   2
    67    37    55    1
    68    38    56    1
    69    39    57    1
    70    40    58    1
    71    41    59    1
    72    42    60    1
    73    43    49   2
    74    43    61    1
    75    44    50   2
    76    44    62    1
    77    45    46   2
    78    45    63    1
    79    46    64    1
    80    47    53   2
    81    47    66    1
    82    48    54   2
    83    48    65    1
    84    49    67    1
    85    50    68    1
    86    51    52   2
    87    51    70    1
    88    52    69    1
    89    53    72    1
    90    54    71    1
@<TRIPOS>SUBSTRUCTURE
1	UNK	1	GROUP	1 ****	UNK
