# created with PyMOL 2.5.2
@<TRIPOS>MOLECULE
9115
36 42 1                 
SMALL
USER_CHARGES
@<TRIPOS>ATOM
1	 C01	-0.508	-1.320	0.000	C.2	1	UNK0	0.000	
2	 C02	0.889	-1.100	0.000	C.2	1	UNK0	0.000	
3	 C03	-1.397	-0.220	0.000	C.2	1	UNK0	0.000	
4	 C04	1.397	0.220	0.000	C.2	1	UNK0	0.000	
5	 C05	-0.889	1.100	0.000	C.2	1	UNK0	0.000	
6	 C06	0.508	1.320	0.000	C.2	1	UNK0	0.000	
7	 C07	-1.016	-2.638	0.000	C.2	1	UNK0	0.000	
8	 C08	1.777	-2.199	0.000	C.2	1	UNK0	0.000	
9	 C09	-2.793	-0.439	0.000	C.2	1	UNK0	0.000	
10	 C10	2.793	0.439	0.000	C.2	1	UNK0	0.000	
11	 C11	-1.777	2.199	0.000	C.2	1	UNK0	0.000	
12	 C12	1.016	2.638	0.000	C.2	1	UNK0	0.000	
13	 C13	-2.403	-2.839	0.000	C.2	1	UNK0	0.000	
14	 C14	1.258	-3.500	0.000	C.2	1	UNK0	0.000	
15	 C15	-0.122	-3.717	0.000	C.2	1	UNK0	0.000	
16	 C16	3.281	1.753	0.000	C.2	1	UNK0	0.000	
17	 C17	-1.257	3.500	0.000	C.2	1	UNK0	0.000	
18	 C18	-3.660	0.661	0.000	C.2	1	UNK0	0.000	
19	 C19	2.403	2.839	0.000	C.2	1	UNK0	0.000	
20	 C20	-3.158	1.965	0.000	C.2	1	UNK0	0.000	
21	 C21	-3.280	-1.753	0.000	C.2	1	UNK0	0.000	
22	 C22	0.122	3.717	0.000	C.2	1	UNK0	0.000	
23	 C23	3.158	-1.965	0.000	C.2	1	UNK0	0.000	
24	 C24	3.660	-0.661	0.000	C.2	1	UNK0	0.000	
25	 H25	-2.814	-3.846	0.000	 H	1	UNK0	0.000	
26	 H26	1.924	-4.360	0.000	 H	1	UNK0	0.000	
27	 H27	-0.493	-4.740	0.000	 H	1	UNK0	0.000	
28	 H28	2.814	3.846	0.000	 H	1	UNK0	0.000	
29	 H29	-1.924	4.360	0.000	 H	1	UNK0	0.000	
30	 H30	-4.351	-1.943	0.000	 H	1	UNK0	0.000	
31	 H31	-3.859	2.797	0.000	 H	1	UNK0	0.000	
32	 H32	4.351	1.943	0.000	 H	1	UNK0	0.000	
33	 H33	3.859	-2.797	0.000	 H	1	UNK0	0.000	
34	 H34	-4.738	0.514	0.000	 H	1	UNK0	0.000	
35	 H35	0.493	4.740	0.000	 H	1	UNK0	0.000	
36	 H36	4.738	-0.514	0.000	 H	1	UNK0	0.000	
@<TRIPOS>BOND
1 1 2 1
2 1 3 1
3 1 7 2
4 2 4 1
5 2 8 2
6 3 5 1
7 3 9 2
8 4 6 1
9 4 10 2
10 5 6 1
11 5 11 2
12 6 12 2
13 7 13 1
14 7 15 1
15 8 14 1
16 8 23 1
17 9 18 1
18 9 21 1
19 10 16 1
20 10 24 1
21 11 17 1
22 11 20 1
23 12 19 1
24 12 22 1
25 13 21 2
26 13 25 1
27 14 15 2
28 14 26 1
29 15 27 1
30 16 19 2
31 16 32 1
32 17 22 2
33 17 29 1
34 18 20 2
35 18 34 1
36 19 28 1
37 20 31 1
38 21 30 1
39 22 35 1
40 23 24 2
41 23 33 1
42 24 36 1
@<TRIPOS>SUBSTRUCTURE
1	UNK	1	GROUP	1 ****	UNK
