# created with PyMOL 2.5.4								
@<TRIPOS>MOLECULE								
full_87								
393 450 1               								
SMALL								
USER_CHARGES								
@<TRIPOS>ATOM								
1	 C01	16.316	35.503	29.427	C.3	1	UNK0	0
2	 C02	15.171	37.293	31.157	C.3	1	UNK0	0
3	 C03	16.229	37.785	30.372	C.3	1	UNK0	0
4	 C04	16.925	36.776	29.647	C.3	1	UNK0	0
5	 C05	18.634	35.093	31.16	C.3	1	UNK0	0
6	 C06	15.052	35.922	31.319	C.3	1	UNK0	0
7	 C07	15.105	35.269	30.121	C.3	1	UNK0	0
8	 C08	18.266	36.936	29.478	C.3	1	UNK0	0
9	 C09	18.857	37.416	28.338	C.3	1	UNK0	0
10	 C10	19.104	35.944	30.016	C.3	1	UNK0	0
11	 C11	21.023	36.672	25.765	C.3	1	UNK0	0
12	 C12	23.342	33.955	26.347	C.3	1	UNK0	0
13	 C13	22.118	34.669	26.299	C.3	1	UNK0	0
14	 C14	24.065	33.907	27.59	C.3	1	UNK0	0
15	 C15	20.6	36.135	27.002	C.3	1	UNK0	0
16	 C16	21.315	34.981	27.364	C.3	1	UNK0	0
17	 C17	19.809	36.444	28.052	C.3	1	UNK0	0
18	 C18	21.144	34.61	28.74	C.3	1	UNK0	0
19	 C19	21.943	33.807	30.941	C.3	1	UNK0	0
20	 C20	22.198	34.058	29.535	C.3	1	UNK0	0
21	 C21	24.445	33.792	31.129	C.3	1	UNK0	0
22	 C22	24.616	34.118	29.79	C.3	1	UNK0	0
23	 C23	20.067	35.527	29.058	C.3	1	UNK0	0
24	 C24	23.519	33.986	28.918	C.3	1	UNK0	0
25	 C25	25.49	33.941	27.277	C.3	1	UNK0	0
26	 C26	29.882	32.745	25.933	C.3	1	UNK0	0
27	 C27	26.144	33.649	26.076	C.3	1	UNK0	0
28	 C28	27.302	32.769	26.182	C.3	1	UNK0	0
29	 C29	29.893	36.676	27.027	C.3	1	UNK0	0
30	 C30	28.602	34.673	26.703	C.3	1	UNK0	0
31	 C31	28.611	33.325	26.266	C.3	1	UNK0	0
32	 C32	29.726	35.452	26.302	C.3	1	UNK0	0
33	 C33	27.633	35.124	27.693	C.3	1	UNK0	0
34	 C34	26.377	34.575	28.147	C.3	1	UNK0	0
35	 C35	29.292	36.769	28.307	C.3	1	UNK0	0
36	 C36	29.927	37.44	29.348	C.3	1	UNK0	0
37	 C37	25.829	34.722	29.419	C.3	1	UNK0	0
38	 C38	27.678	36.133	29.964	C.3	1	UNK0	0
39	 C39	26.585	35.384	30.362	C.3	1	UNK0	0
40	 C40	28.577	36.509	30.998	C.3	1	UNK0	0
41	 C41	29.725	37.148	30.671	C.3	1	UNK0	0
42	 C42	28.119	36.09	28.607	C.3	1	UNK0	0
43	 C43	18.605	39.754	29.192	C.3	1	UNK0	0
44	 C44	15.688	39.983	31.42	C.3	1	UNK0	0
45	 C45	16.589	39.134	30.697	C.3	1	UNK0	0
46	 C46	17.699	39.93	30.299	C.3	1	UNK0	0
47	 C47	20.499	39.143	25.847	C.3	1	UNK0	0
48	 C48	19.855	39.426	27.133	C.3	1	UNK0	0
49	 C49	19.033	38.806	28.152	C.3	1	UNK0	0
50	 C50	16.534	34.979	36.102	C.3	1	UNK0	0
51	 C51	16.638	33.494	31.775	C.3	1	UNK0	0
52	 C52	17.396	34.395	35.138	C.3	1	UNK0	0
53	 C53	17.432	34.293	33.719	C.3	1	UNK0	0
54	 C54	17.09	34.854	37.392	C.3	1	UNK0	0
55	 C55	15.241	35.401	32.609	C.3	1	UNK0	0
56	 C56	16.232	34.299	32.813	C.3	1	UNK0	0
57	 C57	18.729	33.91	33.267	C.3	1	UNK0	0
58	 C58	18.252	34.171	37.257	C.3	1	UNK0	0
59	 C59	15.278	35.557	36.035	C.3	1	UNK0	0
60	 C60	18.476	33.918	35.927	C.3	1	UNK0	0
61	 C61	23.151	33.443	31.615	C.3	1	UNK0	0
62	 C62	19.371	34.086	31.936	C.3	1	UNK0	0
63	 C63	24.329	33.657	37.424	C.3	1	UNK0	0
64	 C64	23.93	33.264	35.122	C.3	1	UNK0	0
65	 C65	24.287	33.136	33.808	C.3	1	UNK0	0
66	 C66	23.179	33.03	32.972	C.3	1	UNK0	0
67	 C67	22.528	33.185	35.175	C.3	1	UNK0	0
68	 C68	19.793	33.531	34.105	C.3	1	UNK0	0
69	 C69	22.018	33.328	36.481	C.3	1	UNK0	0
70	 C70	20.809	33.8	31.864	C.3	1	UNK0	0
71	 C71	20.914	33.43	33.24	C.3	1	UNK0	0
72	 C72	22.081	33.077	33.825	C.3	1	UNK0	0
73	 C73	19.707	33.452	35.53	C.3	1	UNK0	0
74	 C74	20.635	33.273	36.621	C.3	1	UNK0	0
75	 C75	22.963	33.382	37.567	C.3	1	UNK0	0
76	 C76	24.687	33.846	36.112	C.3	1	UNK0	0
77	 C77	25.463	34.111	32.048	C.3	1	UNK0	0
78	 C78	25.363	33.834	33.407	C.3	1	UNK0	0
79	 C79	29.312	33.237	36.248	C.3	1	UNK0	0
80	 C80	28.395	34.834	34.774	C.3	1	UNK0	0
81	 C81	26.078	34.538	34.403	C.3	1	UNK0	0
82	 C82	28.512	36.067	32.32	C.3	1	UNK0	0
83	 C83	27.282	35.134	34.02	C.3	1	UNK0	0
84	 C84	27.349	35.498	32.69	C.3	1	UNK0	0
85	 C85	26.427	35.079	31.718	C.3	1	UNK0	0
86	 C86	29.653	35.057	34.228	C.3	1	UNK0	0
87	 C87	29.631	35.893	33.113	C.3	1	UNK0	0
88	 C88	28.258	34.105	35.93	C.3	1	UNK0	0
89	 C89	25.887	34.349	35.777	C.3	1	UNK0	0
90	 C90	26.999	34.096	36.584	C.3	1	UNK0	0
91	 C91	29.04	32.481	37.409	C.3	1	UNK0	0
92	 C92	26.747	33.466	37.828	C.3	1	UNK0	0
93	 C93	17.166	35.161	41.236	C.3	1	UNK0	0
94	 C94	16.656	35.228	38.682	C.3	1	UNK0	0
95	 C95	16.541	36.977	42.797	C.3	1	UNK0	0
96	 C96	17.761	35.218	43.698	C.3	1	UNK0	0
97	 C97	17.005	36.382	43.949	C.3	1	UNK0	0
98	 C98	15.69	37.087	40.691	C.3	1	UNK0	0
99	 C99	16.42	36.291	41.572	C.3	1	UNK0	0
100	C100	15.427	35.901	38.567	C.3	1	UNK0	0
101	C101	18.637	34.166	39.637	C.3	1	UNK0	0
102	C102	17.415	34.861	39.853	C.3	1	UNK0	0
103	C103	17.97	34.765	42.349	C.3	1	UNK0	0
104	C104	19.037	33.834	38.334	C.3	1	UNK0	0
105	C105	25.239	32.494	41.967	C.3	1	UNK0	0
106	C106	23.449	32.571	43.568	C.3	1	UNK0	0
107	C107	19.186	34.146	42.051	C.3	1	UNK0	0
108	C108	23.004	32.687	41.147	C.3	1	UNK0	0
109	C109	19.503	33.853	40.702	C.3	1	UNK0	0
110	C110	23.865	32.483	42.223	C.3	1	UNK0	0
111	C111	22.232	33.138	43.87	C.3	1	UNK0	0
112	C112	22.559	33.024	38.843	C.3	1	UNK0	0
113	C113	23.532	32.831	39.846	C.3	1	UNK0	0
114	C114	21.691	33.086	41.459	C.3	1	UNK0	0
115	C115	20.769	33.304	40.413	C.3	1	UNK0	0
116	C116	20.106	33.926	43.096	C.3	1	UNK0	0
117	C117	21.359	33.4	42.794	C.3	1	UNK0	0
118	C118	21.177	33.11	39.081	C.3	1	UNK0	0
119	C119	24.937	32.974	39.612	C.3	1	UNK0	0
120	C120	20.277	33.309	38.014	C.3	1	UNK0	0
121	C121	29.179	31.717	41.455	C.3	1	UNK0	0
122	C122	27.432	32.211	43.143	C.3	1	UNK0	0
123	C123	29.126	31.735	40.047	C.3	1	UNK0	0
124	C124	27.891	32.717	38.24	C.3	1	UNK0	0
125	C125	26.031	32.292	43.074	C.3	1	UNK0	0
126	C126	27.997	32.351	41.849	C.3	1	UNK0	0
127	C127	27.213	32.693	40.713	C.3	1	UNK0	0
128	C128	25.392	33.431	38.348	C.3	1	UNK0	0
129	C129	25.808	32.778	40.719	C.3	1	UNK0	0
130	C130	28.003	32.379	39.582	C.3	1	UNK0	0
131	C131	15.47	38.251	41.367	C.3	1	UNK0	0
132	C132	16.183	39.522	43.311	C.3	1	UNK0	0
133	C133	16.047	38.281	42.638	C.3	1	UNK0	0
134	C134	28.403	30.124	46.089	C.3	1	UNK0	0
135	C135	27.414	30.57	46.984	C.3	1	UNK0	0
136	C136	26.27	31.111	46.412	C.3	1	UNK0	0
137	C137	26.472	31.341	45.043	C.3	1	UNK0	0
138	C138	28.777	30.912	44.983	C.3	1	UNK0	0
139	C139	27.709	31.479	44.357	C.3	1	UNK0	0
140	C140	18.598	37.541	46.943	C.3	1	UNK0	0
141	C141	17.161	37.142	45.184	C.3	1	UNK0	0
142	C142	18.582	34.809	44.779	C.3	1	UNK0	0
143	C143	17.847	36.558	46.28	C.3	1	UNK0	0
144	C144	18.41	35.292	46.116	C.3	1	UNK0	0
145	C145	18.592	36.349	49.01	C.3	1	UNK0	0
146	C146	17.981	36.373	50.285	C.3	1	UNK0	0
147	C147	18.965	35.072	48.545	C.3	1	UNK0	0
148	C148	18.979	37.55	48.29	C.3	1	UNK0	0
149	C149	19.3	34.094	49.498	C.3	1	UNK0	0
150	C150	25.041	31.781	46.976	C.3	1	UNK0	0
151	C151	24.26	32.214	44.641	C.3	1	UNK0	0
152	C152	19.19	34.794	47.182	C.3	1	UNK0	0
153	C153	24.027	32.35	46.015	C.3	1	UNK0	0
154	C154	19.803	34.184	44.452	C.3	1	UNK0	0
155	C155	22.774	32.902	46.309	C.3	1	UNK0	0
156	C156	21.929	33.322	45.235	C.3	1	UNK0	0
157	C157	20.276	33.962	46.854	C.3	1	UNK0	0
158	C158	20.682	33.867	45.511	C.3	1	UNK0	0
159	C159	22.291	32.95	47.639	C.3	1	UNK0	0
160	C160	20.212	33.083	49.054	C.3	1	UNK0	0
161	C161	20.948	33.282	47.857	C.3	1	UNK0	0
162	C162	25.491	31.844	44.245	C.3	1	UNK0	0
163	C163	18.592	38.648	46.128	C.3	1	UNK0	0
164	C164	17.195	39.598	44.341	C.3	1	UNK0	0
165	C165	17.526	38.544	45.219	C.3	1	UNK0	0
166	C166	18.082	38.768	50.04	C.3	1	UNK0	0
167	C167	20.988	39.502	46.529	C.3	1	UNK0	0
168	C168	19.708	39.471	45.848	C.3	1	UNK0	0
169	C169	19.022	38.835	48.992	C.3	1	UNK0	0
170	H170	21.426	32.249	34.096	 H	1	UNK0	0
171	H171	20.419	33.417	43.982	 H	1	UNK0	0
172	H172	20.333	32.573	35.374	 H	1	UNK0	0
173	H173	23.289	33.815	46.608	 H	1	UNK0	0
174	H174	17.023	34.768	29.812	 H	1	UNK0	0
175	H175	20.174	32.423	36.118	 H	1	UNK0	0
176	H176	22.943	33.671	45.432	 H	1	UNK0	0
177	H177	16.114	35.409	28.36	 H	1	UNK0	0
178	H178	22.716	34.271	36.986	 H	1	UNK0	0
179	H179	20.219	32.875	46.789	 H	1	UNK0	0
180	H180	14.275	37.576	30.605	 H	1	UNK0	0
181	H181	24.249	34.841	36.184	 H	1	UNK0	0
182	H182	20.822	34.946	45.442	 H	1	UNK0	0
183	H183	15.278	37.727	32.151	 H	1	UNK0	0
184	H184	25.861	33.151	31.72	 H	1	UNK0	0
185	H185	22.843	33.775	48.09	 H	1	UNK0	0
186	H186	16.274	38.211	29.37	 H	1	UNK0	0
187	H187	26.212	33.158	33.31	 H	1	UNK0	0
188	H188	22.453	31.964	48.075	 H	1	UNK0	0
189	H189	16.619	37.061	28.64	 H	1	UNK0	0
190	H190	30.2	33.84	36.438	 H	1	UNK0	0
191	H191	19.563	32.24	48.818	 H	1	UNK0	0
192	H192	18.003	34.411	30.59	 H	1	UNK0	0
193	H193	29.472	32.556	35.413	 H	1	UNK0	0
194	H194	20.939	32.938	49.853	 H	1	UNK0	0
195	H195	18.29	35.81	31.906	 H	1	UNK0	0
196	H196	28.409	35.749	35.366	 H	1	UNK0	0
197	H197	21.331	32.309	48.166	 H	1	UNK0	0
198	H198	14.123	35.42	31.589	 H	1	UNK0	0
199	H199	25.283	35.284	34.393	 H	1	UNK0	0
200	H200	24.782	31.02	44.164	 H	1	UNK0	0
201	H201	15.043	34.2	30.325	 H	1	UNK0	0
202	H202	28.545	37.069	32.748	 H	1	UNK0	0
203	H203	18.496	39.476	46.83	 H	1	UNK0	0
204	H204	14.275	35.608	29.501	 H	1	UNK0	0
205	H205	27.296	36.155	34.4	 H	1	UNK0	0
206	H206	16.724	40.295	45.034	 H	1	UNK0	0
207	H207	18.186	37.832	30.093	 H	1	UNK0	0
208	H208	26.532	36.219	32.71	 H	1	UNK0	0
209	H209	18.121	39.85	43.824	 H	1	UNK0	0
210	H210	18.198	37.531	27.477	 H	1	UNK0	0
211	H211	25.961	36.036	31.952	 H	1	UNK0	0
212	H212	16.566	39.06	45.216	 H	1	UNK0	0
213	H213	19.726	36.359	30.809	 H	1	UNK0	0
214	H214	30.037	34.091	33.899	 H	1	UNK0	0
215	H215	17.142	38.369	49.659	 H	1	UNK0	0
216	H216	22.049	36.363	25.567	 H	1	UNK0	0
217	H217	30.286	35.512	34.99	 H	1	UNK0	0
218	H218	18.46	38.116	50.827	 H	1	UNK0	0
219	H219	20.374	36.307	24.969	 H	1	UNK0	0
220	H220	29.721	36.875	33.578	 H	1	UNK0	0
221	H221	17.915	39.767	50.444	 H	1	UNK0	0
222	H222	20.973	37.76	25.805	 H	1	UNK0	0
223	H223	30.415	35.529	32.449	 H	1	UNK0	0
224	H224	21.695	40.093	45.946	 H	1	UNK0	0
225	H225	24	34.512	25.68	 H	1	UNK0	0
226	H226	28.47	34.666	36.84	 H	1	UNK0	0
227	H227	20.865	39.952	47.514	 H	1	UNK0	0
228	H228	23.125	32.926	26.061	 H	1	UNK0	0
229	H229	25.792	35.368	36.151	 H	1	UNK0	0
230	H230	21.367	38.486	46.637	 H	1	UNK0	0
231	H231	21.491	33.92	25.814	 H	1	UNK0	0
232	H232	27.298	34.985	37.14	 H	1	UNK0	0
233	H233	19.308	40.419	46.208	 H	1	UNK0	0
234	H234	22.365	35.626	25.84	 H	1	UNK0	0
235	H235	29.854	32.787	38.067	 H	1	UNK0	0
236	H236	19.954	39.259	44.807	 H	1	UNK0	0
237	H237	23.583	33.336	28.383	 H	1	UNK0	0
238	H238	28.969	31.443	37.084	 H	1	UNK0	0
239	H239	18.787	39.655	48.313	 H	1	UNK0	0
240	H240	19.901	36.803	26.499	 H	1	UNK0	0
241	H241	26.554	33.906	38.806	 H	1	UNK0	0
242	H242	20.02	39.008	49.395	 H	1	UNK0	0
243	H243	21.447	33.926	27.605	 H	1	UNK0	0
244	H244	16.597	34.245	41.074	 H	1	UNK0	0
245	H245	19.445	37.244	27.408	 H	1	UNK0	0
246	H246	16.886	35.457	39.722	 H	1	UNK0	0
247	H247	20.92	33.607	29.105	 H	1	UNK0	0
248	H248	17.16	36.914	43.692	 H	1	UNK0	0
249	H249	21.029	34.129	30.443	 H	1	UNK0	0
250	H250	17.055	34.387	43.689	 H	1	UNK0	0
251	H251	22.247	32.971	29.596	 H	1	UNK0	0
252	H252	16.108	36.007	44.441	 H	1	UNK0	0
253	H253	24.741	32.752	30.988	 H	1	UNK0	0
254	H254	14.759	36.61	40.384	 H	1	UNK0	0
255	H255	24.931	33.301	29.14	 H	1	UNK0	0
256	H256	16.259	37.274	39.78	 H	1	UNK0	0
257	H257	20.368	34.725	29.732	 H	1	UNK0	0
258	H258	16.023	35.276	41.587	 H	1	UNK0	0
259	H259	22.577	33.659	28.478	 H	1	UNK0	0
260	H260	14.683	35.407	39.192	 H	1	UNK0	0
261	H261	24.951	32.998	27.365	 H	1	UNK0	0
262	H262	15.546	36.934	38.893	 H	1	UNK0	0
263	H263	30.63	33.072	26.655	 H	1	UNK0	0
264	H264	15.098	35.883	37.528	 H	1	UNK0	0
265	H265	29.804	31.658	25.958	 H	1	UNK0	0
266	H266	17.818	33.574	40.046	 H	1	UNK0	0
267	H267	30.178	33.065	24.934	 H	1	UNK0	0
268	H268	16.339	35.033	39.859	 H	1	UNK0	0
269	H269	26.528	34.601	25.709	 H	1	UNK0	0
270	H270	17.189	34.051	42.61	 H	1	UNK0	0
271	H271	25.424	33.176	25.408	 H	1	UNK0	0
272	H272	18.726	33.033	39.005	 H	1	UNK0	0
273	H273	27.311	32.249	25.224	 H	1	UNK0	0
274	H274	25.252	32.008	40.991	 H	1	UNK0	0
275	H275	27.158	32.164	27.077	 H	1	UNK0	0
276	H276	23.521	31.56	43.166	 H	1	UNK0	0
277	H277	29.378	37.425	26.426	 H	1	UNK0	0
278	H278	19.107	33.059	42.02	 H	1	UNK0	0
279	H279	30.963	36.835	27.157	 H	1	UNK0	0
280	H280	22.753	31.672	40.84	 H	1	UNK0	0
281	H281	27.834	35.235	26.172	 H	1	UNK0	0
282	H282	18.606	33.249	40.839	 H	1	UNK0	0
283	H283	28.88	32.275	26.149	 H	1	UNK0	0
284	H284	23.53	31.446	42.233	 H	1	UNK0	0
285	H285	30.609	34.848	26.509	 H	1	UNK0	0
286	H286	21.729	34.094	44.016	 H	1	UNK0	0
287	H287	29.613	35.695	25.245	 H	1	UNK0	0
288	H288	22.572	31.96	39.079	 H	1	UNK0	0
289	H289	27.15	35.15	26.716	 H	1	UNK0	0
290	H290	24.077	31.94	39.533	 H	1	UNK0	0
291	H291	27.434	34.368	28.312	 H	1	UNK0	0
292	H292	21.229	32.114	41.633	 H	1	UNK0	0
293	H293	28.911	37.552	27.651	 H	1	UNK0	0
294	H294	20.307	32.317	40.422	 H	1	UNK0	0
295	H295	29.468	38.426	29.276	 H	1	UNK0	0
296	H296	19.404	34.76	43.07	 H	1	UNK0	0
297	H297	30.996	37.316	29.175	 H	1	UNK0	0
298	H298	22.131	33.915	42.222	 H	1	UNK0	0
299	H299	24.99	35.309	29.045	 H	1	UNK0	0
300	H300	20.91	32.058	38.98	 H	1	UNK0	0
301	H301	27.204	37.093	29.761	 H	1	UNK0	0
302	H302	25.417	32.137	39.105	 H	1	UNK0	0
303	H303	25.895	36.228	30.376	 H	1	UNK0	0
304	H304	20.322	32.225	37.914	 H	1	UNK0	0
305	H305	27.668	37.099	31.116	 H	1	UNK0	0
306	H306	30.069	32.211	41.846	 H	1	UNK0	0
307	H307	29.655	38.118	31.164	 H	1	UNK0	0
308	H308	29.213	30.694	41.829	 H	1	UNK0	0
309	H309	30.554	36.521	30.999	 H	1	UNK0	0
310	H310	28.238	32.905	43.382	 H	1	UNK0	0
311	H311	27.334	36.754	28.245	 H	1	UNK0	0
312	H312	29.091	30.703	39.698	 H	1	UNK0	0
313	H313	19.388	39.401	29.863	 H	1	UNK0	0
314	H314	30.009	32.248	39.667	 H	1	UNK0	0
315	H315	18.334	40.612	28.577	 H	1	UNK0	0
316	H316	27.393	31.98	37.61	 H	1	UNK0	0
317	H317	14.741	39.464	31.569	 H	1	UNK0	0
318	H318	25.923	33.289	42.647	 H	1	UNK0	0
319	H319	16.121	40.233	32.389	 H	1	UNK0	0
320	H320	28.304	33.271	42.347	 H	1	UNK0	0
321	H321	15.515	40.897	30.852	 H	1	UNK0	0
322	H322	26.922	33.743	40.703	 H	1	UNK0	0
323	H323	17.054	38.148	30.707	 H	1	UNK0	0
324	H324	26.036	34.109	38.908	 H	1	UNK0	0
325	H325	17.139	40.775	29.898	 H	1	UNK0	0
326	H326	25.942	33.596	40.012	 H	1	UNK0	0
327	H327	18.346	39.946	31.176	 H	1	UNK0	0
328	H328	27.218	32.391	38.826	 H	1	UNK0	0
329	H329	21.508	38.77	26.021	 H	1	UNK0	0
330	H330	14.392	38.339	41.505	 H	1	UNK0	0
331	H331	19.922	38.391	25.309	 H	1	UNK0	0
332	H332	15.883	39.073	40.782	 H	1	UNK0	0
333	H333	20.547	40.057	25.255	 H	1	UNK0	0
334	H334	15.236	39.669	43.831	 H	1	UNK0	0
335	H335	18.982	39.855	26.641	 H	1	UNK0	0
336	H336	16.416	40.28	42.563	 H	1	UNK0	0
337	H337	20.71	39.751	27.726	 H	1	UNK0	0
338	H338	15.934	38.528	43.693	 H	1	UNK0	0
339	H339	18.287	38.369	27.488	 H	1	UNK0	0
340	H340	27.937	29.256	45.623	 H	1	UNK0	0
341	H341	16.077	35.379	35.197	 H	1	UNK0	0
342	H342	29.306	29.962	46.677	 H	1	UNK0	0
343	H343	17.654	33.146	31.961	 H	1	UNK0	0
344	H344	27.873	31.384	47.544	 H	1	UNK0	0
345	H345	15.97	32.636	31.697	 H	1	UNK0	0
346	H346	27.111	29.721	47.596	 H	1	UNK0	0
347	H347	16.613	34.06	30.844	 H	1	UNK0	0
348	H348	25.76	30.385	47.045	 H	1	UNK0	0
349	H349	16.742	34.38	34.266	 H	1	UNK0	0
350	H350	26.453	30.299	45.363	 H	1	UNK0	0
351	H351	17.014	35.227	33.343	 H	1	UNK0	0
352	H352	29.27	30.258	44.264	 H	1	UNK0	0
353	H353	16.378	35.541	37.85	 H	1	UNK0	0
354	H354	29.441	31.704	45.327	 H	1	UNK0	0
355	H355	14.284	34.935	32.843	 H	1	UNK0	0
356	H356	28.732	31.504	43.982	 H	1	UNK0	0
357	H357	15.55	36.23	33.246	 H	1	UNK0	0
358	H358	19.546	37.146	47.308	 H	1	UNK0	0
359	H359	15.361	34.002	33.397	 H	1	UNK0	0
360	H360	16.076	37.082	45.271	 H	1	UNK0	0
361	H361	17.727	33.487	33.201	 H	1	UNK0	0
362	H362	17.868	34.027	45.039	 H	1	UNK0	0
363	H363	19.053	33.687	37.815	 H	1	UNK0	0
364	H364	17.085	36.215	46.98	 H	1	UNK0	0
365	H365	14.578	34.975	36.635	 H	1	UNK0	0
366	H366	17.575	34.618	46.305	 H	1	UNK0	0
367	H367	15.325	36.576	36.42	 H	1	UNK0	0
368	H368	17.819	36.837	48.416	 H	1	UNK0	0
369	H369	14.94	35.575	34.999	 H	1	UNK0	0
370	H370	16.969	35.976	50.21	 H	1	UNK0	0
371	H371	18.615	33.028	35.314	 H	1	UNK0	0
372	H372	18.56	35.762	50.978	 H	1	UNK0	0
373	H373	22.812	32.592	31.025	 H	1	UNK0	0
374	H374	17.942	37.399	50.65	 H	1	UNK0	0
375	H375	19.267	33.26	31.232	 H	1	UNK0	0
376	H376	17.927	34.969	48.229	 H	1	UNK0	0
377	H377	24.218	34.444	38.17	 H	1	UNK0	0
378	H378	20.065	37.456	48.263	 H	1	UNK0	0
379	H379	24.453	32.497	35.693	 H	1	UNK0	0
380	H380	18.37	33.575	49.731	 H	1	UNK0	0
381	H381	24.754	32.158	33.695	 H	1	UNK0	0
382	H382	19.749	34.599	50.354	 H	1	UNK0	0
383	H383	23.209	32.113	32.384	 H	1	UNK0	0
384	H384	25.43	32.654	47.501	 H	1	UNK0	0
385	H385	21.487	32.92	35.361	 H	1	UNK0	0
386	H386	24.525	31.043	47.59	 H	1	UNK0	0
387	H387	19.909	32.918	34.999	 H	1	UNK0	0
388	H388	23.364	31.79	45.095	 H	1	UNK0	0
389	H389	21.817	34.207	37.094	 H	1	UNK0	0
390	H390	18.329	35.39	47.485	 H	1	UNK0	0
391	H391	21.159	33.959	30.844	 H	1	UNK0	0
392	H392	24.395	32.876	46.896	 H	1	UNK0	0
393	H393	20.916	32.712	32.42	 H	1	UNK0	0
@<TRIPOS>BOND								
1 1 4 1								
2 1 7 1								
3 1 174 1								
4 1 177 1								
5 2 3 1								
6 2 6 1								
7 2 180 1								
8 2 183 1								
9 3 4 1								
10 3 45 1								
11 3 186 1								
12 4 8 1								
13 4 189 1								
14 5 10 1								
15 5 62 1								
16 5 192 1								
17 5 195 1								
18 6 7 1								
19 6 55 1								
20 6 198 1								
21 7 201 1								
22 7 204 1								
23 8 9 1								
24 8 10 1								
25 8 207 1								
26 9 17 1								
27 9 49 1								
28 9 210 1								
29 10 23 1								
30 10 213 1								
31 11 15 1								
32 11 216 1								
33 11 219 1								
34 11 222 1								
35 12 13 1								
36 12 14 1								
37 12 225 1								
38 12 228 1								
39 13 16 1								
40 13 231 1								
41 13 234 1								
42 14 24 1								
43 14 25 1								
44 14 237 1								
45 15 16 1								
46 15 17 1								
47 15 240 1								
48 16 18 1								
49 16 243 1								
50 17 23 1								
51 17 245 1								
52 18 20 1								
53 18 23 1								
54 18 247 1								
55 19 20 1								
56 19 61 1								
57 19 70 1								
58 19 249 1								
59 20 24 1								
60 20 251 1								
61 21 22 1								
62 21 61 1								
63 21 77 1								
64 21 253 1								
65 22 24 1								
66 22 37 1								
67 22 255 1								
68 23 257 1								
69 24 259 1								
70 25 27 1								
71 25 34 1								
72 25 261 1								
73 26 31 1								
74 26 263 1								
75 26 265 1								
76 26 267 1								
77 27 28 1								
78 27 269 1								
79 27 271 1								
80 28 31 1								
81 28 273 1								
82 28 275 1								
83 29 32 1								
84 29 35 1								
85 29 277 1								
86 29 279 1								
87 30 31 1								
88 30 32 1								
89 30 33 1								
90 30 281 1								
91 31 283 1								
92 32 285 1								
93 32 287 1								
94 33 34 1								
95 33 42 1								
96 33 289 1								
97 34 37 1								
98 34 291 1								
99 35 36 1								
100 35 42 1								
101 35 293 1								
102 36 41 1								
103 36 295 1								
104 36 297 1								
105 37 39 1								
106 37 299 1								
107 38 39 1								
108 38 40 1								
109 38 42 1								
110 38 301 1								
111 39 85 1								
112 39 303 1								
113 40 41 1								
114 40 82 1								
115 40 305 1								
116 41 307 1								
117 41 309 1								
118 42 311 1								
119 43 46 1								
120 43 49 1								
121 43 313 1								
122 43 315 1								
123 44 45 1								
124 44 317 1								
125 44 319 1								
126 44 321 1								
127 45 46 1								
128 45 323 1								
129 46 325 1								
130 46 327 1								
131 47 48 1								
132 47 329 1								
133 47 331 1								
134 47 333 1								
135 48 49 1								
136 48 335 1								
137 48 337 1								
138 49 339 1								
139 50 52 1								
140 50 54 1								
141 50 59 1								
142 50 341 1								
143 51 56 1								
144 51 343 1								
145 51 345 1								
146 51 347 1								
147 52 53 1								
148 52 60 1								
149 52 349 1								
150 53 56 1								
151 53 57 1								
152 53 351 1								
153 54 58 1								
154 54 94 1								
155 54 353 1								
156 55 56 1								
157 55 355 1								
158 55 357 1								
159 56 359 1								
160 57 62 1								
161 57 68 1								
162 57 361 1								
163 58 60 1								
164 58 104 1								
165 58 363 1								
166 59 365 1								
167 59 367 1								
168 59 369 1								
169 60 73 1								
170 60 371 1								
171 61 66 1								
172 61 373 1								
173 62 70 1								
174 62 375 1								
175 63 75 1								
176 63 76 1								
177 63 128 1								
178 63 377 1								
179 64 65 1								
180 64 67 1								
181 64 76 1								
182 64 379 1								
183 65 66 1								
184 65 78 1								
185 65 381 1								
186 66 72 1								
187 66 383 1								
188 67 69 1								
189 67 72 1								
190 67 385 1								
191 68 71 1								
192 68 73 1								
193 68 387 1								
194 69 74 1								
195 69 75 1								
196 69 389 1								
197 70 71 1								
198 70 391 1								
199 71 72 1								
200 71 393 1								
201 72 170 1								
202 73 74 1								
203 73 172 1								
204 74 120 1								
205 74 175 1								
206 75 112 1								
207 75 178 1								
208 76 89 1								
209 76 181 1								
210 77 78 1								
211 77 85 1								
212 77 184 1								
213 78 81 1								
214 78 187 1								
215 79 88 1								
216 79 91 1								
217 79 190 1								
218 79 193 1								
219 80 83 1								
220 80 86 1								
221 80 88 1								
222 80 196 1								
223 81 83 1								
224 81 89 1								
225 81 199 1								
226 82 84 1								
227 82 87 1								
228 82 202 1								
229 83 84 1								
230 83 205 1								
231 84 85 1								
232 84 208 1								
233 85 211 1								
234 86 87 1								
235 86 214 1								
236 86 217 1								
237 87 220 1								
238 87 223 1								
239 88 90 1								
240 88 226 1								
241 89 90 1								
242 89 229 1								
243 90 92 1								
244 90 232 1								
245 91 124 1								
246 91 235 1								
247 91 238 1								
248 92 124 1								
249 92 128 1								
250 92 241 1								
251 93 99 1								
252 93 102 1								
253 93 103 1								
254 93 244 1								
255 94 100 1								
256 94 102 1								
257 94 246 1								
258 95 97 1								
259 95 99 1								
260 95 133 1								
261 95 248 1								
262 96 97 1								
263 96 103 1								
264 96 142 1								
265 96 250 1								
266 97 141 1								
267 97 252 1								
268 98 99 1								
269 98 131 1								
270 98 254 1								
271 98 256 1								
272 99 258 1								
273 100 260 1								
274 100 262 1								
275 100 264 1								
276 101 102 1								
277 101 104 1								
278 101 109 1								
279 101 266 1								
280 102 268 1								
281 103 107 1								
282 103 270 1								
283 104 120 1								
284 104 272 1								
285 105 110 1								
286 105 125 1								
287 105 129 1								
288 105 274 1								
289 106 110 1								
290 106 111 1								
291 106 151 1								
292 106 276 1								
293 107 109 1								
294 107 116 1								
295 107 278 1								
296 108 110 1								
297 108 113 1								
298 108 114 1								
299 108 280 1								
300 109 115 1								
301 109 282 1								
302 110 284 1								
303 111 117 1								
304 111 156 1								
305 111 286 1								
306 112 113 1								
307 112 118 1								
308 112 288 1								
309 113 119 1								
310 113 290 1								
311 114 115 1								
312 114 117 1								
313 114 292 1								
314 115 118 1								
315 115 294 1								
316 116 117 1								
317 116 154 1								
318 116 296 1								
319 117 298 1								
320 118 120 1								
321 118 300 1								
322 119 128 1								
323 119 129 1								
324 119 302 1								
325 120 304 1								
326 121 123 1								
327 121 126 1								
328 121 306 1								
329 121 308 1								
330 122 125 1								
331 122 126 1								
332 122 139 1								
333 122 310 1								
334 123 130 1								
335 123 312 1								
336 123 314 1								
337 124 130 1								
338 124 316 1								
339 125 162 1								
340 125 318 1								
341 126 127 1								
342 126 320 1								
343 127 129 1								
344 127 130 1								
345 127 322 1								
346 128 324 1								
347 129 326 1								
348 130 328 1								
349 131 133 1								
350 131 330 1								
351 131 332 1								
352 132 133 1								
353 132 164 1								
354 132 334 1								
355 132 336 1								
356 133 338 1								
357 134 135 1								
358 134 138 1								
359 134 340 1								
360 134 342 1								
361 135 136 1								
362 135 344 1								
363 135 346 1								
364 136 137 1								
365 136 150 1								
366 136 348 1								
367 137 139 1								
368 137 162 1								
369 137 350 1								
370 138 139 1								
371 138 352 1								
372 138 354 1								
373 139 356 1								
374 140 143 1								
375 140 148 1								
376 140 163 1								
377 140 358 1								
378 141 143 1								
379 141 165 1								
380 141 360 1								
381 142 144 1								
382 142 154 1								
383 142 362 1								
384 143 144 1								
385 143 364 1								
386 144 152 1								
387 144 366 1								
388 145 146 1								
389 145 147 1								
390 145 148 1								
391 145 368 1								
392 146 370 1								
393 146 372 1								
394 146 374 1								
395 147 149 1								
396 147 152 1								
397 147 376 1								
398 148 169 1								
399 148 378 1								
400 149 160 1								
401 149 380 1								
402 149 382 1								
403 150 153 1								
404 150 384 1								
405 150 386 1								
406 151 153 1								
407 151 162 1								
408 151 388 1								
409 152 157 1								
410 152 390 1								
411 153 155 1								
412 153 392 1								
413 154 158 1								
414 154 171 1								
415 155 156 1								
416 155 159 1								
417 155 173 1								
418 156 158 1								
419 156 176 1								
420 157 158 1								
421 157 161 1								
422 157 179 1								
423 158 182 1								
424 159 161 1								
425 159 185 1								
426 159 188 1								
427 160 161 1								
428 160 191 1								
429 160 194 1								
430 161 197 1								
431 162 200 1								
432 163 165 1								
433 163 168 1								
434 163 203 1								
435 164 165 1								
436 164 206 1								
437 164 209 1								
438 165 212 1								
439 166 169 1								
440 166 215 1								
441 166 218 1								
442 166 221 1								
443 167 168 1								
444 167 224 1								
445 167 227 1								
446 167 230 1								
447 168 233 1								
448 168 236 1								
449 169 239 1								
450 169 242 1								
@<TRIPOS>SUBSTRUCTURE								
1	UNK1	1	GROUP	1 ****	UNK			