# created with PyMOL 2.5.4								
@<TRIPOS>MOLECULE								
full_87								
119 127 1               								
SMALL								
USER_CHARGES								
@<TRIPOS>ATOM								
1	 C01	9.925	44.15	42.774	C.3	1	UNK0	0
2	 C02	8.007	49.428	43.68	C.3	1	UNK0	0
3	 C03	9.17	47.698	42.729	C.3	1	UNK0	0
4	 C04	9.672	48.874	42.136	C.3	1	UNK0	0
5	 C05	9.408	45.276	43.473	C.3	1	UNK0	0
6	 C06	9.491	46.456	42.911	C.3	1	UNK0	0
7	 C07	8.088	48.046	43.676	C.3	1	UNK0	0
8	 C08	9.076	49.935	42.874	C.3	1	UNK0	0
9	 C09	4.165	41.452	49.568	C.3	1	UNK0	0
10	 C10	3.881	42.81	49.31	C.3	1	UNK0	0
11	 C11	4.01	43.345	48.021	C.3	1	UNK0	0
12	 C12	4.052	43.707	50.429	C.3	1	UNK0	0
13	 C13	9.606	41.67	45.588	C.3	1	UNK0	0
14	 C14	9.378	42.84	44.82	C.3	1	UNK0	0
15	 C15	9.221	41.663	46.944	C.3	1	UNK0	0
16	 C16	7.988	43.772	46.587	C.3	1	UNK0	0
17	 C17	8.595	43.869	45.32	C.3	1	UNK0	0
18	 C18	9.522	42.268	49.507	C.3	1	UNK0	0
19	 C19	8.516	43.072	48.848	C.3	1	UNK0	0
20	 C20	8.485	42.766	47.452	C.3	1	UNK0	0
21	 C21	9.839	40.7	47.761	C.3	1	UNK0	0
22	 C22	3.704	48.038	46.861	C.3	1	UNK0	0
23	 C23	4.558	46.92	46.844	C.3	1	UNK0	0
24	 C24	3.078	45.126	46.041	C.3	1	UNK0	0
25	 C25	1.542	46.856	46.644	C.3	1	UNK0	0
26	 C26	2.095	46.006	45.663	C.3	1	UNK0	0
27	 C27	5.886	46.922	46.3	C.3	1	UNK0	0
28	 C28	5.156	49.918	45.885	C.3	1	UNK0	0
29	 C29	4.126	49.362	46.669	C.3	1	UNK0	0
30	 C30	3.982	45.582	47.034	C.3	1	UNK0	0
31	 C31	2.291	47.959	47.155	C.3	1	UNK0	0
32	 C32	6.2	49.283	45.233	C.3	1	UNK0	0
33	 C33	4.975	44.771	50.185	C.3	1	UNK0	0
34	 C34	1.517	49.039	47.731	C.3	1	UNK0	0
35	 C35	5.448	45.012	48.877	C.3	1	UNK0	0
36	 C36	4.468	44.674	47.945	C.3	1	UNK0	0
37	 C37	0.228	48.787	48.219	C.3	1	UNK0	0
38	 C38	0.299	46.586	47.17	C.3	1	UNK0	0
39	 C39	6.41	47.894	45.388	C.3	1	UNK0	0
40	 C40	6.729	45.762	46.151	C.3	1	UNK0	0
41	 C41	7.382	47.279	44.581	C.3	1	UNK0	0
42	 C42	8.526	45.049	44.59	C.3	1	UNK0	0
43	 C43	7.581	45.966	45.034	C.3	1	UNK0	0
44	 C44	7.063	44.718	47.056	C.3	1	UNK0	0
45	 C45	6.77	44.733	48.484	C.3	1	UNK0	0
46	H46	10.92	43.914	43.152	 H	1	UNK0	0
47	H47	9.267	43.294	42.925	 H	1	UNK0	0
48	H48	9.986	44.379	41.71	 H	1	UNK0	0
49	H49	8.086	49.809	44.698	 H	1	UNK0	0
50	H50	7.049	49.745	43.267	 H	1	UNK0	0
51	H51	9.519	47.394	41.742	 H	1	UNK0	0
52	H52	9.439	48.931	41.073	 H	1	UNK0	0
53	H53	10.758	48.912	42.216	 H	1	UNK0	0
54	H54	10.248	45.494	44.133	 H	1	UNK0	0
55	H55	10.077	46.778	43.772	 H	1	UNK0	0
56	H56	9.344	46.126	41.883	 H	1	UNK0	0
57	H57	7.42	47.188	43.6	 H	1	UNK0	0
58	H58	9.828	50.389	43.52	 H	1	UNK0	0
59	H59	8.686	50.682	42.183	 H	1	UNK0	0
60	H60	5.087	41.377	50.145	 H	1	UNK0	0
61	H61	3.346	41.01	50.135	 H	1	UNK0	0
62	H62	4.284	40.919	48.624	 H	1	UNK0	0
63	H63	2.801	42.704	49.211	 H	1	UNK0	0
64	H64	3.001	43.359	47.608	 H	1	UNK0	0
65	H65	4.71	42.719	47.468	 H	1	UNK0	0
66	H66	4.462	43.115	51.247	 H	1	UNK0	0
67	H67	3.083	44.142	50.672	 H	1	UNK0	0
68	H68	10.692	41.584	45.622	 H	1	UNK0	0
69	H69	9.072	40.855	45.098	 H	1	UNK0	0
70	H70	8.789	42.47	43.98	 H	1	UNK0	0
71	H71	10.357	43.268	44.604	 H	1	UNK0	0
72	H72	8.251	41.18	47.059	 H	1	UNK0	0
73	H73	6.995	43.507	46.224	 H	1	UNK0	0
74	H74	7.613	43.423	45.161	 H	1	UNK0	0
75	H75	10.391	42.887	49.732	 H	1	UNK0	0
76	H76	9.115	41.864	50.434	 H	1	UNK0	0
77	H77	9.819	41.449	48.852	 H	1	UNK0	0
78	H78	8.758	44.127	48.978	 H	1	UNK0	0
79	H79	7.54	42.862	49.286	 H	1	UNK0	0
80	H80	7.626	42.097	47.414	 H	1	UNK0	0
81	H81	10.76	41.112	48.174	 H	1	UNK0	0
82	H82	9.167	40.427	48.574	 H	1	UNK0	0
83	H83	10.071	39.815	47.169	 H	1	UNK0	0
84	H84	4.291	47.242	46.403	 H	1	UNK0	0
85	H85	4.851	47.377	47.789	 H	1	UNK0	0
86	H86	3.683	44.966	45.149	 H	1	UNK0	0
87	H87	2.592	44.227	46.421	 H	1	UNK0	0
88	H88	1.268	47.388	45.733	 H	1	UNK0	0
89	H89	1.264	45.367	45.364	 H	1	UNK0	0
90	H90	2.514	46.642	44.883	 H	1	UNK0	0
91	H91	5.814	47.284	47.326	 H	1	UNK0	0
92	H92	5.734	50.369	46.692	 H	1	UNK0	0
93	H93	4.633	50.459	45.096	 H	1	UNK0	0
94	H94	4.63	49.471	47.629	 H	1	UNK0	0
95	H95	3.229	49.868	46.311	 H	1	UNK0	0
96	H96	3.424	45.949	47.896	 H	1	UNK0	0
97	H97	2.771	47.794	48.119	 H	1	UNK0	0
98	H98	7.081	49.716	45.707	 H	1	UNK0	0
99	H99	6.055	49.459	44.167	 H	1	UNK0	0
100	H100	5.87	44.451	50.719	 H	1	UNK0	0
101	H101	4.492	45.689	50.519	 H	1	UNK0	0
102	H102	1.342	49.704	46.885	 H	1	UNK0	0
103	H103	2.098	49.436	48.563	 H	1	UNK0	0
104	H104	5.621	46.087	48.914	 H	1	UNK0	0
105	H105	4.124	45.26	47.092	 H	1	UNK0	0
106	H106	-0.476	48.759	47.387	 H	1	UNK0	0
107	H107	0.216	47.828	48.737	 H	1	UNK0	0
108	H108	-0.06	49.578	48.911	 H	1	UNK0	0
109	H109	-0.433	46.535	46.364	 H	1	UNK0	0
110	H110	0.326	45.632	47.697	 H	1	UNK0	0
111	H111	0.018	47.377	47.865	 H	1	UNK0	0
112	H112	5.558	48.536	45.615	 H	1	UNK0	0
113	H113	5.908	45.061	46.304	 H	1	UNK0	0
114	H114	7.549	47.029	43.533	 H	1	UNK0	0
115	H115	8.78	45.49	43.626	 H	1	UNK0	0
116	H116	7.91	45.265	44.267	 H	1	UNK0	0
117	H117	6.025	44.388	47.015	 H	1	UNK0	0
118	H118	6.944	43.708	48.812	 H	1	UNK0	0
119	H119	7.412	45.486	48.941	 H	1	UNK0	0
@<TRIPOS>BOND								
1 1 5 1								
2 1 46 1								
3 1 47 1								
4 1 48 1								
5 2 7 1								
6 2 8 1								
7 2 49 1								
8 2 50 1								
9 3 4 1								
10 3 6 1								
11 3 7 1								
12 3 51 1								
13 4 8 1								
14 4 52 1								
15 4 53 1								
16 5 6 1								
17 5 42 1								
18 5 54 1								
19 6 55 1								
20 6 56 1								
21 7 41 1								
22 7 57 1								
23 8 58 1								
24 8 59 1								
25 9 10 1								
26 9 60 1								
27 9 61 1								
28 9 62 1								
29 10 11 1								
30 10 12 1								
31 10 63 1								
32 11 36 1								
33 11 64 1								
34 11 65 1								
35 12 33 1								
36 12 66 1								
37 12 67 1								
38 13 14 1								
39 13 15 1								
40 13 68 1								
41 13 69 1								
42 14 17 1								
43 14 70 1								
44 14 71 1								
45 15 20 1								
46 15 21 1								
47 15 72 1								
48 16 17 1								
49 16 20 1								
50 16 44 1								
51 16 73 1								
52 17 42 1								
53 17 74 1								
54 18 19 1								
55 18 75 1								
56 18 76 1								
57 18 77 1								
58 19 20 1								
59 19 78 1								
60 19 79 1								
61 20 80 1								
62 21 81 1								
63 21 82 1								
64 21 83 1								
65 22 23 1								
66 22 29 1								
67 22 31 1								
68 22 84 1								
69 23 27 1								
70 23 30 1								
71 23 85 1								
72 24 26 1								
73 24 30 1								
74 24 86 1								
75 24 87 1								
76 25 26 1								
77 25 31 1								
78 25 38 1								
79 25 88 1								
80 26 89 1								
81 26 90 1								
82 27 39 1								
83 27 40 1								
84 27 91 1								
85 28 29 1								
86 28 32 1								
87 28 92 1								
88 28 93 1								
89 29 94 1								
90 29 95 1								
91 30 36 1								
92 30 96 1								
93 31 34 1								
94 31 97 1								
95 32 39 1								
96 32 98 1								
97 32 99 1								
98 33 35 1								
99 33 100 1								
100 33 101 1								
101 34 37 1								
102 34 102 1								
103 34 103 1								
104 35 36 1								
105 35 45 1								
106 35 104 1								
107 36 105 1								
108 37 106 1								
109 37 107 1								
110 37 108 1								
111 38 109 1								
112 38 110 1								
113 38 111 1								
114 39 41 1								
115 39 112 1								
116 40 43 1								
117 40 44 1								
118 40 113 1								
119 41 43 1								
120 41 114 1								
121 42 43 1								
122 42 115 1								
123 43 116 1								
124 44 45 1								
125 44 117 1								
126 45 118 1								
127 45 119 1								
@<TRIPOS>SUBSTRUCTURE								
1	UNK1	1	GROUP	1 ****	UNK			