# created with PyMOL 2.5.4								
@<TRIPOS>MOLECULE								
full_87								
269 295 1               								
SMALL								
USER_CHARGES								
@<TRIPOS>ATOM								
1	 C01	15.013	10.386	27.488	C.3	1	UNK0	0
2	 C02	15.613	11.266	26.561	C.3	1	UNK0	0
3	 C03	12.847	11.696	30.802	C.3	1	UNK0	0
4	 C04	13.145	10.29	30.768	C.3	1	UNK0	0
5	 C05	14.374	10.919	28.61	C.3	1	UNK0	0
6	 C06	13.967	9.942	29.625	C.3	1	UNK0	0
7	 C07	13.812	12.513	30.079	C.3	1	UNK0	0
8	 C08	15.444	13.175	28.182	C.3	1	UNK0	0
9	 C09	15.874	12.644	26.926	C.3	1	UNK0	0
10	 C10	18.837	16.305	26.894	C.3	1	UNK0	0
11	 C11	17.378	14.577	25.915	C.3	1	UNK0	0
12	 C12	17.715	15.413	26.996	C.3	1	UNK0	0
13	 C13	16.63	13.352	25.94	C.3	1	UNK0	0
14	 C14	16.983	15.293	28.204	C.3	1	UNK0	0
15	 C15	18.898	17.506	30.587	C.3	1	UNK0	0
16	 C16	15.939	14.427	28.692	C.3	1	UNK0	0
17	 C17	18.51	16.977	29.294	C.3	1	UNK0	0
18	 C18	17.349	16.221	29.205	C.3	1	UNK0	0
19	 C19	16.514	16.08	30.292	C.3	1	UNK0	0
20	 C20	14.723	14.767	30.975	C.3	1	UNK0	0
21	 C21	16.786	16.674	31.539	C.3	1	UNK0	0
22	 C22	15.643	15.049	29.971	C.3	1	UNK0	0
23	 C23	19.483	16.392	25.615	C.3	1	UNK0	0
24	 C24	19.271	16.981	28.095	C.3	1	UNK0	0
25	 C25	0.444	10.832	36.562	C.3	1	UNK0	0
26	 C26	1.226	9.684	36.635	C.3	1	UNK0	0
27	 C27	0.966	12.033	36.998	C.3	1	UNK0	0
28	 C28	4.598	11.675	36.627	C.3	1	UNK0	0
29	 C29	2.603	9.73	36.285	C.3	1	UNK0	0
30	 C30	3.275	10.96	37.039	C.3	1	UNK0	0
31	 C31	2.322	12.13	37.376	C.3	1	UNK0	0
32	 C32	7.801	11.866	32.793	C.3	1	UNK0	0
33	 C33	10.325	11.635	33.022	C.3	1	UNK0	0
34	 C34	10.51	10.196	32.839	C.3	1	UNK0	0
35	 C35	9.043	12.12	33.478	C.3	1	UNK0	0
36	 C36	12.402	12.389	32.01	C.3	1	UNK0	0
37	 C37	0.149	13.172	37.122	C.3	1	UNK0	0
38	 C38	6.2	13.536	36.755	C.3	1	UNK0	0
39	 C39	5.019	12.864	37.228	C.3	1	UNK0	0
40	 C40	6.866	13.119	35.583	C.3	1	UNK0	0
41	 C41	11.91	18.047	37.332	C.3	1	UNK0	0
42	 C42	9.972	15	35.556	C.3	1	UNK0	0
43	 C43	8.624	14.749	35.938	C.3	1	UNK0	0
44	 C44	11.433	13.767	33.844	C.3	1	UNK0	0
45	 C45	10.265	13.991	34.587	C.3	1	UNK0	0
46	 C46	12.102	16.335	35.793	C.3	1	UNK0	0
47	 C47	7.989	15.216	37.086	C.3	1	UNK0	0
48	 C48	9.969	16.606	37.267	C.3	1	UNK0	0
49	 C49	8.061	13.73	35.167	C.3	1	UNK0	0
50	 C50	9.091	13.225	34.356	C.3	1	UNK0	0
51	 C51	6.748	14.619	37.465	C.3	1	UNK0	0
52	 C52	12.444	14.785	33.853	C.3	1	UNK0	0
53	 C53	10.599	17.727	37.764	C.3	1	UNK0	0
54	 C54	14.646	18.787	37.393	C.3	1	UNK0	0
55	 C55	12.781	17.377	36.48	C.3	1	UNK0	0
56	 C56	13.221	14.646	32.707	C.3	1	UNK0	0
57	 C57	13.166	13.52	31.956	C.3	1	UNK0	0
58	 C58	12.877	15.872	34.691	C.3	1	UNK0	0
59	 C59	18.007	17.368	31.709	C.3	1	UNK0	0
60	 C60	14.238	15.414	32.167	C.3	1	UNK0	0
61	 C61	14.769	16.294	33.099	C.3	1	UNK0	0
62	 C62	14.151	16.51	34.378	C.3	1	UNK0	0
63	 C63	16.033	16.762	32.735	C.3	1	UNK0	0
64	 C64	14.871	17.387	35.269	C.3	1	UNK0	0
65	 C65	16.741	17.5	33.65	C.3	1	UNK0	0
66	 C66	14.142	17.856	36.391	C.3	1	UNK0	0
67	 C67	16.203	17.859	34.905	C.3	1	UNK0	0
68	 C68	17.962	17.874	33.049	C.3	1	UNK0	0
69	 C69	17.147	18.645	35.6	C.3	1	UNK0	0
70	 C70	18.855	18.609	33.826	C.3	1	UNK0	0
71	 C71	18.504	18.926	35.18	C.3	1	UNK0	0
72	 C72	17.062	19.08	36.928	C.3	1	UNK0	0
73	 C73	15.972	19.114	37.794	C.3	1	UNK0	0
74	 C74	18.343	19.514	37.32	C.3	1	UNK0	0
75	 C75	19.276	19.432	36.297	C.3	1	UNK0	0
76	 C76	1.396	16.214	39.778	C.3	1	UNK0	0
77	 C77	4.268	16.869	39.956	C.3	1	UNK0	0
78	 C78	5.694	17.123	39.854	C.3	1	UNK0	0
79	 C79	1.856	17.437	40.328	C.3	1	UNK0	0
80	 C80	3.253	17.811	40.343	C.3	1	UNK0	0
81	 C81	2.374	15.295	39.351	C.3	1	UNK0	0
82	 C82	0.787	18.351	40.578	C.3	1	UNK0	0
83	 C83	3.779	15.609	39.47	C.3	1	UNK0	0
84	 C84	4.669	14.715	38.789	C.3	1	UNK0	0
85	 C85	1.872	14.173	38.613	C.3	1	UNK0	0
86	 C86	6.009	15.121	38.553	C.3	1	UNK0	0
87	 C87	4.174	13.549	38.144	C.3	1	UNK0	0
88	 C88	0.541	14.127	38.094	C.3	1	UNK0	0
89	 C89	2.795	13.243	38.116	C.3	1	UNK0	0
90	 C90	0.044	16.088	39.338	C.3	1	UNK0	0
91	 C91	6.555	16.253	39.146	C.3	1	UNK0	0
92	 C92	6.582	18.205	40.127	C.3	1	UNK0	0
93	 C93	7.912	17.997	39.596	C.3	1	UNK0	0
94	 C94	10.19	18.638	38.785	C.3	1	UNK0	0
95	 C95	7.848	16.788	38.85	C.3	1	UNK0	0
96	 C96	9.095	18.82	39.69	C.3	1	UNK0	0
97	 C97	3.525	19.205	40.539	C.3	1	UNK0	0
98	 C98	4.748	19.892	40.597	C.3	1	UNK0	0
99	 C99	1.106	19.677	40.61	C.3	1	UNK0	0
100	C100	6.107	19.44	40.615	C.3	1	UNK0	0
101	C101	12.381	19.134	38.025	C.3	1	UNK0	0
102	C102	11.358	19.417	38.882	C.3	1	UNK0	0
103	C103	11.707	19.989	40.003	C.3	1	UNK0	0
104	C104	9.353	19.791	40.717	C.3	1	UNK0	0
105	C105	18.706	19.585	38.641	C.3	1	UNK0	0
106	C106	13.74	19.439	38.262	C.3	1	UNK0	0
107	C107	16.297	19.59	39.102	C.3	1	UNK0	0
108	H108	15.079	18.125	36.878	 H	1	UNK0	0
109	H109	15.463	17.971	35.698	 H	1	UNK0	0
110	H110	15.854	9.831	27.905	 H	1	UNK0	0
111	H111	18.924	18.326	32.807	 H	1	UNK0	0
112	H112	14.27	9.804	26.943	 H	1	UNK0	0
113	H113	16.312	18.855	34.932	 H	1	UNK0	0
114	H114	14.858	11.356	25.78	 H	1	UNK0	0
115	H115	18.891	19.58	33.332	 H	1	UNK0	0
116	H116	16.572	10.827	26.286	 H	1	UNK0	0
117	H117	19.787	18.045	33.861	 H	1	UNK0	0
118	H118	11.892	11.6	30.285	 H	1	UNK0	0
119	H119	19.339	19.27	34.569	 H	1	UNK0	0
120	H120	12.204	9.746	30.687	 H	1	UNK0	0
121	H121	16.013	18.958	37.198	 H	1	UNK0	0
122	H122	13.675	10.019	31.681	 H	1	UNK0	0
123	H123	15.207	18.346	37.682	 H	1	UNK0	0
124	H124	13.453	11.373	28.244	 H	1	UNK0	0
125	H125	18.249	20.585	37.5	 H	1	UNK0	0
126	H126	15.054	11.629	29.08	 H	1	UNK0	0
127	H127	19.759	20.386	36.084	 H	1	UNK0	0
128	H128	13.291	9.304	29.056	 H	1	UNK0	0
129	H129	20.083	18.747	36.557	 H	1	UNK0	0
130	H130	14.89	9.528	30.032	 H	1	UNK0	0
131	H131	1.1	15.712	40.699	 H	1	UNK0	0
132	H132	14.745	11.96	29.968	 H	1	UNK0	0
133	H133	4.704	17.189	40.902	 H	1	UNK0	0
134	H134	13.416	12.758	29.093	 H	1	UNK0	0
135	H135	4.91	17.222	40.605	 H	1	UNK0	0
136	H136	13.999	13.432	30.634	 H	1	UNK0	0
137	H137	2.359	17.269	41.281	 H	1	UNK0	0
138	H138	15.865	12.459	28.888	 H	1	UNK0	0
139	H139	3.705	17.435	41.261	 H	1	UNK0	0
140	H140	14.361	13.279	28.115	 H	1	UNK0	0
141	H141	2.831	14.741	40.171	 H	1	UNK0	0
142	H142	15.423	13.44	27.519	 H	1	UNK0	0
143	H143	0.442	18.117	41.585	 H	1	UNK0	0
144	H144	19.176	17.333	26.769	 H	1	UNK0	0
145	H145	0.041	18.209	39.796	 H	1	UNK0	0
146	H146	18.366	14.16	25.719	 H	1	UNK0	0
147	H147	3.834	15.431	40.544	 H	1	UNK0	0
148	H148	16.828	15.222	25.229	 H	1	UNK0	0
149	H149	4.829	14.149	39.707	 H	1	UNK0	0
150	H150	17.292	16.393	26.773	 H	1	UNK0	0
151	H151	1.511	13.769	39.559	 H	1	UNK0	0
152	H152	15.757	13.768	25.438	 H	1	UNK0	0
153	H153	6.122	14.372	39.337	 H	1	UNK0	0
154	H154	17.368	12.613	25.627	 H	1	UNK0	0
155	H155	4.323	13.007	39.078	 H	1	UNK0	0
156	H156	16.756	14.669	27.34	 H	1	UNK0	0
157	H157	-0.035	13.817	38.966	 H	1	UNK0	0
158	H158	18.933	18.583	30.421	 H	1	UNK0	0
159	H159	0.349	15.106	37.656	 H	1	UNK0	0
160	H160	19.832	17.017	30.862	 H	1	UNK0	0
161	H161	2.895	12.654	39.028	 H	1	UNK0	0
162	H162	15.303	13.854	28.017	 H	1	UNK0	0
163	H163	-0.557	16.882	39.781	 H	1	UNK0	0
164	H164	18.708	18.044	29.394	 H	1	UNK0	0
165	H165	0.006	16.168	38.252	 H	1	UNK0	0
166	H166	17.469	17.119	28.599	 H	1	UNK0	0
167	H167	-0.35	15.119	39.646	 H	1	UNK0	0
168	H168	15.909	16.853	30.767	 H	1	UNK0	0
169	H169	6.998	15.461	39.749	 H	1	UNK0	0
170	H170	15.401	14.108	31.517	 H	1	UNK0	0
171	H171	6.784	18.339	41.19	 H	1	UNK0	0
172	H172	13.805	14.604	30.41	 H	1	UNK0	0
173	H173	8.631	18.675	40.055	 H	1	UNK0	0
174	H174	16.055	15.982	31.121	 H	1	UNK0	0
175	H175	9.109	18.507	38.828	 H	1	UNK0	0
176	H176	14.786	14.484	29.604	 H	1	UNK0	0
177	H177	7.994	16.952	37.782	 H	1	UNK0	0
178	H178	20.492	15.987	25.69	 H	1	UNK0	0
179	H179	8.632	16.099	39.164	 H	1	UNK0	0
180	H180	18.916	15.82	24.881	 H	1	UNK0	0
181	H181	8.031	19	39.538	 H	1	UNK0	0
182	H182	19.533	17.435	25.303	 H	1	UNK0	0
183	H183	3.291	19.245	41.603	 H	1	UNK0	0
184	H184	19.207	18.027	27.796	 H	1	UNK0	0
185	H185	2.983	19.697	39.732	 H	1	UNK0	0
186	H186	20.24	16.552	28.35	 H	1	UNK0	0
187	H187	4.692	20.147	41.655	 H	1	UNK0	0
188	H188	-0.369	10.635	37.261	 H	1	UNK0	0
189	H189	4.711	20.553	39.731	 H	1	UNK0	0
190	H190	0.17	10.965	35.515	 H	1	UNK0	0
191	H191	2.054	19.835	40.095	 H	1	UNK0	0
192	H192	0.797	9.044	35.864	 H	1	UNK0	0
193	H193	0.324	20.252	40.114	 H	1	UNK0	0
194	H194	1.176	9.335	37.667	 H	1	UNK0	0
195	H195	1.197	20.005	41.646	 H	1	UNK0	0
196	H196	0.907	11.82	35.931	 H	1	UNK0	0
197	H197	6.531	20.108	39.865	 H	1	UNK0	0
198	H198	4.373	12.001	35.612	 H	1	UNK0	0
199	H199	6.401	19.464	41.664	 H	1	UNK0	0
200	H200	5.398	10.952	36.788	 H	1	UNK0	0
201	H201	12.674	19.958	37.375	 H	1	UNK0	0
202	H202	2.71	9.849	35.207	 H	1	UNK0	0
203	H203	10.856	20.283	38.45	 H	1	UNK0	0
204	H204	3.091	8.803	36.586	 H	1	UNK0	0
205	H205	12.563	20.641	39.827	 H	1	UNK0	0
206	H206	3.567	10.28	37.839	 H	1	UNK0	0
207	H207	10.874	20.579	40.385	 H	1	UNK0	0
208	H208	2.539	12.927	36.664	 H	1	UNK0	0
209	H209	11.977	19.225	40.733	 H	1	UNK0	0
210	H210	7.066	12.616	33.084	 H	1	UNK0	0
211	H211	10.17	20.442	40.404	 H	1	UNK0	0
212	H212	7.963	11.915	31.716	 H	1	UNK0	0
213	H213	8.457	20.389	40.886	 H	1	UNK0	0
214	H214	7.434	10.875	33.061	 H	1	UNK0	0
215	H215	9.629	19.28	41.64	 H	1	UNK0	0
216	H216	10.417	12.042	32.015	 H	1	UNK0	0
217	H217	19.549	20.267	38.749	 H	1	UNK0	0
218	H218	11.069	11.965	33.747	 H	1	UNK0	0
219	H219	17.865	19.951	39.23	 H	1	UNK0	0
220	H220	11.463	9.894	33.275	 H	1	UNK0	0
221	H221	18.993	18.594	38.993	 H	1	UNK0	0
222	H222	9.7	9.659	33.332	 H	1	UNK0	0
223	H223	13.854	20.508	38.084	 H	1	UNK0	0
224	H224	10.507	9.961	31.775	 H	1	UNK0	0
225	H225	13.981	19.151	39.285	 H	1	UNK0	0
226	H226	8.843	11.212	34.047	 H	1	UNK0	0
227	H227	17.122	20.3	39.035	 H	1	UNK0	0
228	H228	12.517	11.812	32.928	 H	1	UNK0	0
229	H229	15.428	20.084	39.536	 H	1	UNK0	0
230	H230	11.338	12.621	31.971	 H	1	UNK0	0
231	H231	16.591	18.751	39.732	 H	1	UNK0	0
232	H232	-0.818	12.798	37.458	 H	1	UNK0	0
233	H233	0.128	13.673	36.154	 H	1	UNK0	0
234	H234	5.131	13.337	36.675	 H	1	UNK0	0
235	H235	5.503	12.231	37.972	 H	1	UNK0	0
236	H236	6.167	13.408	34.798	 H	1	UNK0	0
237	H237	7.089	12.06	35.714	 H	1	UNK0	0
238	H238	11.689	17.627	36.351	 H	1	UNK0	0
239	H239	10.655	14.969	36.405	 H	1	UNK0	0
240	H240	10.071	15.994	35.12	 H	1	UNK0	0
241	H241	8.217	15.76	35.92	 H	1	UNK0	0
242	H242	11.093	13.731	32.809	 H	1	UNK0	0
243	H243	11.889	12.853	34.224	 H	1	UNK0	0
244	H244	11.351	13.952	34.666	 H	1	UNK0	0
245	H245	11.154	16.721	35.418	 H	1	UNK0	0
246	H246	11.925	15.508	36.48	 H	1	UNK0	0
247	H247	7.729	16.247	36.848	 H	1	UNK0	0
248	H248	8.681	15.078	37.917	 H	1	UNK0	0
249	H249	9.034	16.897	36.789	 H	1	UNK0	0
250	H250	10.614	16.12	36.535	 H	1	UNK0	0
251	H251	9.759	15.914	38.083	 H	1	UNK0	0
252	H252	7.28	13.906	34.427	 H	1	UNK0	0
253	H253	8.724	12.505	33.624	 H	1	UNK0	0
254	H254	7.831	14.516	37.404	 H	1	UNK0	0
255	H255	11.876	14.984	34.762	 H	1	UNK0	0
256	H256	9.583	17.444	37.487	 H	1	UNK0	0
257	H257	14.914	18.532	36.368	 H	1	UNK0	0
258	H258	13.698	16.927	36.099	 H	1	UNK0	0
259	H259	12.637	15.405	33.227	 H	1	UNK0	0
260	H260	12.628	13.973	31.123	 H	1	UNK0	0
261	H261	14.184	13.135	32.01	 H	1	UNK0	0
262	H262	12.049	15.666	35.369	 H	1	UNK0	0
263	H263	19.076	17.529	31.572	 H	1	UNK0	0
264	H264	14.276	16.334	31.584	 H	1	UNK0	0
265	H265	14.209	17.194	33.355	 H	1	UNK0	0
266	H266	13.418	16.245	35.14	 H	1	UNK0	0
267	H267	15.316	16.055	32.318	 H	1	UNK0	0
268	H268	15.688	17.01	35.885	 H	1	UNK0	0
269	H269	16.909	17.598	34.723	 H	1	UNK0	0
@<TRIPOS>BOND								
1 1 2 1								
2 1 5 1								
3 1 110 1								
4 1 112 1								
5 2 9 1								
6 2 114 1								
7 2 116 1								
8 3 4 1								
9 3 7 1								
10 3 36 1								
11 3 118 1								
12 4 6 1								
13 4 120 1								
14 4 122 1								
15 5 6 1								
16 5 124 1								
17 5 126 1								
18 6 128 1								
19 6 130 1								
20 7 132 1								
21 7 134 1								
22 7 136 1								
23 8 9 1								
24 8 16 1								
25 8 138 1								
26 8 140 1								
27 9 13 1								
28 9 142 1								
29 10 12 1								
30 10 23 1								
31 10 24 1								
32 10 144 1								
33 11 12 1								
34 11 13 1								
35 11 146 1								
36 11 148 1								
37 12 14 1								
38 12 150 1								
39 13 152 1								
40 13 154 1								
41 14 16 1								
42 14 18 1								
43 14 156 1								
44 15 17 1								
45 15 59 1								
46 15 158 1								
47 15 160 1								
48 16 22 1								
49 16 162 1								
50 17 18 1								
51 17 24 1								
52 17 164 1								
53 18 19 1								
54 18 166 1								
55 19 21 1								
56 19 22 1								
57 19 168 1								
58 20 22 1								
59 20 60 1								
60 20 170 1								
61 20 172 1								
62 21 59 1								
63 21 63 1								
64 21 174 1								
65 22 176 1								
66 23 178 1								
67 23 180 1								
68 23 182 1								
69 24 184 1								
70 24 186 1								
71 25 26 1								
72 25 27 1								
73 25 188 1								
74 25 190 1								
75 26 29 1								
76 26 192 1								
77 26 194 1								
78 27 31 1								
79 27 37 1								
80 27 196 1								
81 28 30 1								
82 28 39 1								
83 28 198 1								
84 28 200 1								
85 29 30 1								
86 29 202 1								
87 29 204 1								
88 30 31 1								
89 30 206 1								
90 31 89 1								
91 31 208 1								
92 32 35 1								
93 32 210 1								
94 32 212 1								
95 32 214 1								
96 33 34 1								
97 33 35 1								
98 33 216 1								
99 33 218 1								
100 34 220 1								
101 34 222 1								
102 34 224 1								
103 35 50 1								
104 35 226 1								
105 36 57 1								
106 36 228 1								
107 36 230 1								
108 37 88 1								
109 37 232 1								
110 37 233 1								
111 38 39 1								
112 38 40 1								
113 38 51 1								
114 38 234 1								
115 39 87 1								
116 39 235 1								
117 40 49 1								
118 40 236 1								
119 40 237 1								
120 41 53 1								
121 41 55 1								
122 41 101 1								
123 41 238 1								
124 42 43 1								
125 42 45 1								
126 42 239 1								
127 42 240 1								
128 43 47 1								
129 43 49 1								
130 43 241 1								
131 44 45 1								
132 44 52 1								
133 44 242 1								
134 44 243 1								
135 45 50 1								
136 45 244 1								
137 46 55 1								
138 46 58 1								
139 46 245 1								
140 46 246 1								
141 47 51 1								
142 47 247 1								
143 47 248 1								
144 48 53 1								
145 48 249 1								
146 48 250 1								
147 48 251 1								
148 49 50 1								
149 49 252 1								
150 50 253 1								
151 51 86 1								
152 51 254 1								
153 52 56 1								
154 52 58 1								
155 52 255 1								
156 53 94 1								
157 53 256 1								
158 54 66 1								
159 54 73 1								
160 54 106 1								
161 54 257 1								
162 55 66 1								
163 55 258 1								
164 56 57 1								
165 56 60 1								
166 56 259 1								
167 57 260 1								
168 57 261 1								
169 58 62 1								
170 58 262 1								
171 59 68 1								
172 59 263 1								
173 60 61 1								
174 60 264 1								
175 61 62 1								
176 61 63 1								
177 61 265 1								
178 62 64 1								
179 62 266 1								
180 63 65 1								
181 63 267 1								
182 64 66 1								
183 64 67 1								
184 64 268 1								
185 65 67 1								
186 65 68 1								
187 65 269 1								
188 66 108 1								
189 67 69 1								
190 67 109 1								
191 68 70 1								
192 68 111 1								
193 69 71 1								
194 69 72 1								
195 69 113 1								
196 70 71 1								
197 70 115 1								
198 70 117 1								
199 71 75 1								
200 71 119 1								
201 72 73 1								
202 72 74 1								
203 72 121 1								
204 73 107 1								
205 73 123 1								
206 74 75 1								
207 74 105 1								
208 74 125 1								
209 75 127 1								
210 75 129 1								
211 76 79 1								
212 76 81 1								
213 76 90 1								
214 76 131 1								
215 77 78 1								
216 77 80 1								
217 77 83 1								
218 77 133 1								
219 78 91 1								
220 78 92 1								
221 78 135 1								
222 79 80 1								
223 79 82 1								
224 79 137 1								
225 80 97 1								
226 80 139 1								
227 81 83 1								
228 81 85 1								
229 81 141 1								
230 82 99 1								
231 82 143 1								
232 82 145 1								
233 83 84 1								
234 83 147 1								
235 84 86 1								
236 84 87 1								
237 84 149 1								
238 85 88 1								
239 85 89 1								
240 85 151 1								
241 86 91 1								
242 86 153 1								
243 87 89 1								
244 87 155 1								
245 88 157 1								
246 88 159 1								
247 89 161 1								
248 90 163 1								
249 90 165 1								
250 90 167 1								
251 91 95 1								
252 91 169 1								
253 92 93 1								
254 92 100 1								
255 92 171 1								
256 93 95 1								
257 93 96 1								
258 93 173 1								
259 94 96 1								
260 94 102 1								
261 94 175 1								
262 95 177 1								
263 95 179 1								
264 96 104 1								
265 96 181 1								
266 97 98 1								
267 97 183 1								
268 97 185 1								
269 98 100 1								
270 98 187 1								
271 98 189 1								
272 99 191 1								
273 99 193 1								
274 99 195 1								
275 100 197 1								
276 100 199 1								
277 101 102 1								
278 101 106 1								
279 101 201 1								
280 102 103 1								
281 102 203 1								
282 103 205 1								
283 103 207 1								
284 103 209 1								
285 104 211 1								
286 104 213 1								
287 104 215 1								
288 105 217 1								
289 105 219 1								
290 105 221 1								
291 106 223 1								
292 106 225 1								
293 107 227 1								
294 107 229 1								
295 107 231 1								
@<TRIPOS>SUBSTRUCTURE								
1	UNK1	1	GROUP	1 ****	UNK			