# created with PyMOL 2.5.4								
@<TRIPOS>MOLECULE								
full_87								
194 214 1               								
SMALL								
USER_CHARGES								
@<TRIPOS>ATOM								
1	 C01	9.405	4.745	26.294	C.3	1	UNK0	0
2	 C02	8.809	4.985	27.574	C.3	1	UNK0	0
3	 C03	8.336	3.778	28.243	C.3	1	UNK0	0
4	 C04	8.732	6.253	28.276	C.3	1	UNK0	0
5	 C05	7.855	1.538	30.835	C.3	1	UNK0	0
6	 C06	7.623	2.892	30.619	C.3	1	UNK0	0
7	 C07	7.83	3.858	29.579	C.3	1	UNK0	0
8	 C08	7.901	5.069	30.278	C.3	1	UNK0	0
9	 C09	7.971	0.726	29.736	C.3	1	UNK0	0
10	 C10	8.357	6.243	29.661	C.3	1	UNK0	0
11	 C11	9.029	7.619	27.881	C.3	1	UNK0	0
12	 C12	9.534	8.017	26.622	C.3	1	UNK0	0
13	 C13	9.937	7.176	25.549	C.3	1	UNK0	0
14	 C14	10.028	9.337	26.35	C.3	1	UNK0	0
15	 C15	10.032	10.49	27.159	C.3	1	UNK0	0
16	 C16	9.299	10.159	28.358	C.3	1	UNK0	0
17	 C17	8.82	11.186	29.231	C.3	1	UNK0	0
18	 C18	8.75	8.608	30.109	C.3	1	UNK0	0
19	 C19	8.866	9.656	31.045	C.3	1	UNK0	0
20	 C20	8.538	7.302	30.61	C.3	1	UNK0	0
21	 C21	8.566	10.937	30.589	C.3	1	UNK0	0
22	 C22	8.979	8.795	28.72	C.3	1	UNK0	0
23	 C23	8.232	0.032	32.92	C.3	1	UNK0	0
24	 C24	10.681	4.016	37.491	C.3	1	UNK0	0
25	 C25	7.892	2.508	32.891	C.3	1	UNK0	0
26	 C26	7.64	3.494	31.875	C.3	1	UNK0	0
27	 C27	8.582	2.782	34.092	C.3	1	UNK0	0
28	 C28	9.894	2.56	35.951	C.3	1	UNK0	0
29	 C29	8.945	1.899	35.167	C.3	1	UNK0	0
30	 C30	7.854	4.863	31.68	C.3	1	UNK0	0
31	 C31	9.272	4.022	34.245	C.3	1	UNK0	0
32	 C32	10.127	3.753	35.322	C.3	1	UNK0	0
33	 C33	10.573	4.669	36.227	C.3	1	UNK0	0
34	 C34	7.976	1.243	32.232	C.3	1	UNK0	0
35	 C35	8.624	0.562	35.458	C.3	1	UNK0	0
36	 C36	9.087	5.363	33.783	C.3	1	UNK0	0
37	 C37	10.158	2.676	37.34	C.3	1	UNK0	0
38	 C38	8.46	5.772	32.572	C.3	1	UNK0	0
39	 C39	10.387	6	35.815	C.3	1	UNK0	0
40	 C40	9.772	6.35	34.565	C.3	1	UNK0	0
41	 C41	12.071	6.545	37.501	C.3	1	UNK0	0
42	 C42	11.206	6.9	36.454	C.3	1	UNK0	0
43	 C43	8.666	7.063	32.008	C.3	1	UNK0	0
44	 C44	9.93	7.659	34.02	C.3	1	UNK0	0
45	 C45	9.449	9.361	32.292	C.3	1	UNK0	0
46	 C46	9.313	8.043	32.809	C.3	1	UNK0	0
47	 C47	11.048	8.431	34.481	C.3	1	UNK0	0
48	 C48	11.54	9.473	33.595	C.3	1	UNK0	0
49	 C49	11.716	7.946	35.658	C.3	1	UNK0	0
50	 C50	16.143	10.099	31.588	C.3	1	UNK0	0
51	 C51	15.438	8.439	36.063	C.3	1	UNK0	0
52	 C52	17.631	10.039	33.539	C.3	1	UNK0	0
53	 C53	17.368	10.45	32.218	C.3	1	UNK0	0
54	 C54	13.241	7.28	37.269	C.3	1	UNK0	0
55	 C55	14.009	9.353	34.275	C.3	1	UNK0	0
56	 C56	15.613	7.651	37.224	C.3	1	UNK0	0
57	 C57	16.9	7.406	37.758	C.3	1	UNK0	0
58	 C58	16.613	8.954	35.473	C.3	1	UNK0	0
59	 C59	14.14	8.692	35.51	C.3	1	UNK0	0
60	 C60	14.989	9.983	32.36	C.3	1	UNK0	0
61	 C61	17.919	8.729	35.963	C.3	1	UNK0	0
62	 C62	12.957	9.592	33.33	C.3	1	UNK0	0
63	 C63	16.494	9.577	34.23	C.3	1	UNK0	0
64	 C64	13.613	9.835	32.074	C.3	1	UNK0	0
65	 C65	13.049	8.088	36.124	C.3	1	UNK0	0
66	 C66	19.072	9.296	35.338	C.3	1	UNK0	0
67	 C67	9.708	1.722	38.334	C.3	1	UNK0	0
68	 C68	10.902	4.743	38.723	C.3	1	UNK0	0
69	 C69	9.39	2.198	39.61	C.3	1	UNK0	0
70	 C70	11.82	5.834	38.711	C.3	1	UNK0	0
71	 C71	9.234	0.38	38.023	C.3	1	UNK0	0
72	 C72	12.228	6.537	39.921	C.3	1	UNK0	0
73	 C73	11.241	7.082	40.793	C.3	1	UNK0	0
74	 C74	15.894	7.024	39.899	C.3	1	UNK0	0
75	 C75	14.628	6.879	39.297	C.3	1	UNK0	0
76	 C76	13.538	7.028	40.164	C.3	1	UNK0	0
77	 C77	17.069	6.959	39.09	C.3	1	UNK0	0
78	 C78	14.488	7.138	37.92	C.3	1	UNK0	0
79	H79	9.518	3.28	39.637	 H	1	UNK0	0
80	H80	12.535	5.012	38.75	 H	1	UNK0	0
81	H81	10.419	4.368	26.431	 H	1	UNK0	0
82	H82	8.291	0.445	37.48	 H	1	UNK0	0
83	H83	8.814	4.008	25.75	 H	1	UNK0	0
84	H84	9.973	-0.133	37.408	 H	1	UNK0	0
85	H85	9.437	5.676	25.727	 H	1	UNK0	0
86	H86	9.082	-0.176	38.948	 H	1	UNK0	0
87	H87	8.498	5.955	27.186	 H	1	UNK0	0
88	H88	12.441	5.487	40.122	 H	1	UNK0	0
89	H89	9.24	3.178	28.351	 H	1	UNK0	0
90	H90	10.317	6.511	40.697	 H	1	UNK0	0
91	H91	7.537	3.367	27.626	 H	1	UNK0	0
92	H92	11.595	7.028	41.822	 H	1	UNK0	0
93	H93	8.751	5.954	27.228	 H	1	UNK0	0
94	H94	11.054	8.122	40.526	 H	1	UNK0	0
95	H95	7.841	0.454	30.723	 H	1	UNK0	0
96	H96	15.975	6.145	40.539	 H	1	UNK0	0
97	H97	6.892	2.594	29.868	 H	1	UNK0	0
98	H98	15.902	7.996	40.393	 H	1	UNK0	0
99	H99	7.143	3.5	28.812	 H	1	UNK0	0
100	H100	14.572	5.806	39.111	 H	1	UNK0	0
101	H101	7.028	5.696	30.098	 H	1	UNK0	0
102	H102	13.845	6.37	40.977	 H	1	UNK0	0
103	H103	9.022	0.489	29.569	 H	1	UNK0	0
104	H104	13.424	8.103	40.305	 H	1	UNK0	0
105	H105	7.414	-0.196	29.904	 H	1	UNK0	0
106	H106	17.794	7.632	39.549	 H	1	UNK0	0
107	H107	7.571	1.239	28.861	 H	1	UNK0	0
108	H108	17.404	5.922	39.06	 H	1	UNK0	0
109	H109	7.97	6.809	28.814	 H	1	UNK0	0
110	H110	14.448	6.054	37.815	 H	1	UNK0	0
111	H111	8.38	6.769	28.091	 H	1	UNK0	0
112	H112	8.48	7.836	26.831	 H	1	UNK0	0
113	H113	10.954	6.825	25.725	 H	1	UNK0	0
114	H114	9.264	6.321	25.485	 H	1	UNK0	0
115	H115	9.903	7.737	24.615	 H	1	UNK0	0
116	H116	9.237	9.646	25.667	 H	1	UNK0	0
117	H117	11.078	9.182	26.103	 H	1	UNK0	0
118	H118	9.575	11.333	26.641	 H	1	UNK0	0
119	H119	11.055	10.771	27.409	 H	1	UNK0	0
120	H120	10.222	10.071	27.785	 H	1	UNK0	0
121	H121	7.821	11.379	28.839	 H	1	UNK0	0
122	H122	9.558	11.987	29.198	 H	1	UNK0	0
123	H123	7.843	9.074	29.723	 H	1	UNK0	0
124	H124	8.076	9.879	31.762	 H	1	UNK0	0
125	H125	7.505	7.152	30.924	 H	1	UNK0	0
126	H126	7.488	11.044	30.709	 H	1	UNK0	0
127	H127	9.154	11.645	31.173	 H	1	UNK0	0
128	H128	8.391	8.811	27.802	 H	1	UNK0	0
129	H129	9.099	0.159	33.568	 H	1	UNK0	0
130	H130	7.364	-0.234	33.523	 H	1	UNK0	0
131	H131	8.431	-0.761	32.199	 H	1	UNK0	0
132	H132	11.655	3.902	37.967	 H	1	UNK0	0
133	H133	7.062	2.521	33.598	 H	1	UNK0	0
134	H134	6.924	3.81	32.633	 H	1	UNK0	0
135	H135	7.523	2.523	34.074	 H	1	UNK0	0
136	H136	10.501	1.658	36.029	 H	1	UNK0	0
137	H137	8.049	1.285	35.075	 H	1	UNK0	0
138	H138	7.055	5.349	32.24	 H	1	UNK0	0
139	H139	9.28	4.395	33.221	 H	1	UNK0	0
140	H140	10.985	3.767	34.65	 H	1	UNK0	0
141	H141	11.543	5.131	36.407	 H	1	UNK0	0
142	H142	7.806	0.174	32.358	 H	1	UNK0	0
143	H143	7.652	0.32	35.027	 H	1	UNK0	0
144	H144	9.383	-0.095	35.033	 H	1	UNK0	0
145	H145	8.586	0.424	36.539	 H	1	UNK0	0
146	H146	8.03	5.12	33.67	 H	1	UNK0	0
147	H147	10.652	1.993	38.031	 H	1	UNK0	0
148	H148	7.747	5.887	33.388	 H	1	UNK0	0
149	H149	9.378	6.163	36.193	 H	1	UNK0	0
150	H150	8.989	6.538	35.3	 H	1	UNK0	0
151	H151	11.909	5.493	37.738	 H	1	UNK0	0
152	H152	10.38	7.259	37.068	 H	1	UNK0	0
153	H153	7.607	7.3	32.114	 H	1	UNK0	0
154	H154	9.084	8.052	34.583	 H	1	UNK0	0
155	H155	8.898	9.983	32.998	 H	1	UNK0	0
156	H156	10.516	9.565	32.206	 H	1	UNK0	0
157	H157	8.544	8.387	33.501	 H	1	UNK0	0
158	H158	10.915	9.314	35.106	 H	1	UNK0	0
159	H159	11.311	10.39	34.138	 H	1	UNK0	0
160	H160	11.051	9.324	32.632	 H	1	UNK0	0
161	H161	11.347	8.942	35.415	 H	1	UNK0	0
162	H162	16.318	9.084	31.231	 H	1	UNK0	0
163	H163	15.945	10.858	30.831	 H	1	UNK0	0
164	H164	14.452	8.754	35.721	 H	1	UNK0	0
165	H165	17.993	10.915	34.077	 H	1	UNK0	0
166	H166	18.366	9.234	33.509	 H	1	UNK0	0
167	H167	17.299	11.534	32.306	 H	1	UNK0	0
168	H168	18.167	10.044	31.598	 H	1	UNK0	0
169	H169	13.7	7.558	38.218	 H	1	UNK0	0
170	H170	14.447	8.536	33.701	 H	1	UNK0	0
171	H171	14.343	10.363	34.514	 H	1	UNK0	0
172	H172	15.757	7.183	36.25	 H	1	UNK0	0
173	H173	17.339	8.403	37.786	 H	1	UNK0	0
174	H174	17.362	6.654	37.118	 H	1	UNK0	0
175	H175	16.562	9.524	36.401	 H	1	UNK0	0
176	H176	13.943	9.702	35.87	 H	1	UNK0	0
177	H177	14.924	11.045	32.597	 H	1	UNK0	0
178	H178	15.202	9.116	32.986	 H	1	UNK0	0
179	H179	18.055	7.665	35.769	 H	1	UNK0	0
180	H180	17.924	9.085	36.993	 H	1	UNK0	0
181	H181	11.948	9.976	33.481	 H	1	UNK0	0
182	H182	16.137	8.77	33.591	 H	1	UNK0	0
183	H183	15.847	10.442	34.377	 H	1	UNK0	0
184	H184	13.442	9.015	31.376	 H	1	UNK0	0
185	H185	13.224	10.744	31.615	 H	1	UNK0	0
186	H186	13.133	9.16	35.946	 H	1	UNK0	0
187	H187	19.914	8.611	35.44	 H	1	UNK0	0
188	H188	18.867	9.464	34.281	 H	1	UNK0	0
189	H189	19.316	10.245	35.816	 H	1	UNK0	0
190	H190	10.745	1.391	38.278	 H	1	UNK0	0
191	H191	11.364	4.012	39.386	 H	1	UNK0	0
192	H192	9.937	5.136	39.043	 H	1	UNK0	0
193	H193	8.355	1.949	39.842	 H	1	UNK0	0
194	H194	10.048	1.735	40.345	 H	1	UNK0	0
@<TRIPOS>BOND								
1 1 2 1								
2 1 81 1								
3 1 83 1								
4 1 85 1								
5 2 3 1								
6 2 4 1								
7 2 87 1								
8 3 7 1								
9 3 89 1								
10 3 91 1								
11 4 10 1								
12 4 11 1								
13 4 93 1								
14 5 6 1								
15 5 9 1								
16 5 34 1								
17 5 95 1								
18 6 7 1								
19 6 26 1								
20 6 97 1								
21 7 8 1								
22 7 99 1								
23 8 10 1								
24 8 30 1								
25 8 101 1								
26 9 103 1								
27 9 105 1								
28 9 107 1								
29 10 20 1								
30 10 109 1								
31 11 12 1								
32 11 22 1								
33 11 111 1								
34 12 13 1								
35 12 14 1								
36 12 112 1								
37 13 113 1								
38 13 114 1								
39 13 115 1								
40 14 15 1								
41 14 116 1								
42 14 117 1								
43 15 16 1								
44 15 118 1								
45 15 119 1								
46 16 17 1								
47 16 22 1								
48 16 120 1								
49 17 21 1								
50 17 121 1								
51 17 122 1								
52 18 19 1								
53 18 20 1								
54 18 22 1								
55 18 123 1								
56 19 21 1								
57 19 45 1								
58 19 124 1								
59 20 43 1								
60 20 125 1								
61 21 126 1								
62 21 127 1								
63 22 128 1								
64 23 34 1								
65 23 129 1								
66 23 130 1								
67 23 131 1								
68 24 33 1								
69 24 37 1								
70 24 68 1								
71 24 132 1								
72 25 26 1								
73 25 27 1								
74 25 34 1								
75 25 133 1								
76 26 30 1								
77 26 134 1								
78 27 29 1								
79 27 31 1								
80 27 135 1								
81 28 29 1								
82 28 32 1								
83 28 37 1								
84 28 136 1								
85 29 35 1								
86 29 137 1								
87 30 38 1								
88 30 138 1								
89 31 32 1								
90 31 36 1								
91 31 139 1								
92 32 33 1								
93 32 140 1								
94 33 39 1								
95 33 141 1								
96 34 142 1								
97 35 143 1								
98 35 144 1								
99 35 145 1								
100 36 38 1								
101 36 40 1								
102 36 146 1								
103 37 67 1								
104 37 147 1								
105 38 43 1								
106 38 148 1								
107 39 40 1								
108 39 42 1								
109 39 149 1								
110 40 44 1								
111 40 150 1								
112 41 42 1								
113 41 54 1								
114 41 70 1								
115 41 151 1								
116 42 49 1								
117 42 152 1								
118 43 46 1								
119 43 153 1								
120 44 46 1								
121 44 47 1								
122 44 154 1								
123 45 46 1								
124 45 155 1								
125 45 156 1								
126 46 157 1								
127 47 48 1								
128 47 49 1								
129 47 158 1								
130 48 62 1								
131 48 159 1								
132 48 160 1								
133 49 65 1								
134 49 161 1								
135 50 53 1								
136 50 60 1								
137 50 162 1								
138 50 163 1								
139 51 56 1								
140 51 58 1								
141 51 59 1								
142 51 164 1								
143 52 53 1								
144 52 63 1								
145 52 165 1								
146 52 166 1								
147 53 167 1								
148 53 168 1								
149 54 65 1								
150 54 78 1								
151 54 169 1								
152 55 59 1								
153 55 62 1								
154 55 170 1								
155 55 171 1								
156 56 57 1								
157 56 78 1								
158 56 172 1								
159 57 77 1								
160 57 173 1								
161 57 174 1								
162 58 61 1								
163 58 63 1								
164 58 175 1								
165 59 65 1								
166 59 176 1								
167 60 64 1								
168 60 177 1								
169 60 178 1								
170 61 66 1								
171 61 179 1								
172 61 180 1								
173 62 64 1								
174 62 181 1								
175 63 182 1								
176 63 183 1								
177 64 184 1								
178 64 185 1								
179 65 186 1								
180 66 187 1								
181 66 188 1								
182 66 189 1								
183 67 69 1								
184 67 71 1								
185 67 190 1								
186 68 70 1								
187 68 191 1								
188 68 192 1								
189 69 79 1								
190 69 193 1								
191 69 194 1								
192 70 72 1								
193 70 80 1								
194 71 82 1								
195 71 84 1								
196 71 86 1								
197 72 73 1								
198 72 76 1								
199 72 88 1								
200 73 90 1								
201 73 92 1								
202 73 94 1								
203 74 75 1								
204 74 77 1								
205 74 96 1								
206 74 98 1								
207 75 76 1								
208 75 78 1								
209 75 100 1								
210 76 102 1								
211 76 104 1								
212 77 106 1								
213 77 108 1								
214 78 110 1								
@<TRIPOS>SUBSTRUCTURE								
1	UNK1	1	GROUP	1 ****	UNK			