# created with PyMOL 2.5.4								
@<TRIPOS>MOLECULE								
full_87								
188 208 1               								
SMALL								
USER_CHARGES								
@<TRIPOS>ATOM								
1	 C01	43.414	30.709	29.353	C.3	1	UNK0	0
2	 C02	42.992	30.514	30.625	C.3	1	UNK0	0
3	 C03	43.519	31.525	28.452	C.3	1	UNK0	0
4	 C04	42.139	33.436	28.256	C.3	1	UNK0	0
5	 C05	41.692	34.359	25.996	C.3	1	UNK0	0
6	 C06	43.082	34.057	25.747	C.3	1	UNK0	0
7	 C07	43.663	32.928	26.422	C.3	1	UNK0	0
8	 C08	41.248	34.015	27.302	C.3	1	UNK0	0
9	 C09	43.292	32.709	27.775	C.3	1	UNK0	0
10	 C10	40.648	34.228	29.804	C.3	1	UNK0	0
11	 C11	40.435	35.047	30.881	C.3	1	UNK0	0
12	 C12	41.805	33.445	29.622	C.3	1	UNK0	0
13	 C13	42.532	33.097	30.867	C.3	1	UNK0	0
14	 C14	42.709	31.741	31.364	C.3	1	UNK0	0
15	 C15	44.278	31.937	25.691	C.3	1	UNK0	0
16	 C16	40.834	30.544	35.298	C.3	1	UNK0	0
17	 C17	40.38	30.505	36.616	C.3	1	UNK0	0
18	 C18	41.167	31.187	37.576	C.3	1	UNK0	0
19	 C19	42.396	31.244	32.648	C.3	1	UNK0	0
20	 C20	41.759	31.565	35.009	C.3	1	UNK0	0
21	 C21	42.403	31.974	33.829	C.3	1	UNK0	0
22	 C22	40.997	35.723	33.033	C.3	1	UNK0	0
23	 C23	41.93	35.009	35.267	C.3	1	UNK0	0
24	 C24	42.558	33.715	35.364	C.3	1	UNK0	0
25	 C25	42.053	35.327	33.873	C.3	1	UNK0	0
26	 C26	41.37	35.127	31.825	C.3	1	UNK0	0
27	 C27	41.15	35.748	36.224	C.3	1	UNK0	0
28	 C28	42.477	34.2	31.801	C.3	1	UNK0	0
29	 C29	42.888	34.384	33.173	C.3	1	UNK0	0
30	 C30	43.013	33.269	34.076	C.3	1	UNK0	0
31	 C31	41.961	32.601	35.926	C.3	1	UNK0	0
32	 C32	40.213	36.746	35.798	C.3	1	UNK0	0
33	 C33	41.85	32.346	37.251	C.3	1	UNK0	0
34	 C34	41.556	35.68	37.582	C.3	1	UNK0	0
35	 C35	41.078	30.719	38.869	C.3	1	UNK0	0
36	 C36	42.03	30.758	39.887	C.3	1	UNK0	0
37	 C37	43.77	30.163	41.866	C.3	1	UNK0	0
38	 C38	43.205	31.527	39.94	C.3	1	UNK0	0
39	 C39	44.017	31.349	41.107	C.3	1	UNK0	0
40	 C40	45.39	30.89	43.559	C.3	1	UNK0	0
41	 C41	44.046	35.022	42.036	C.3	1	UNK0	0
42	 C42	42.505	33.231	38.152	C.3	1	UNK0	0
43	 C43	41.738	36.891	39.76	C.3	1	UNK0	0
44	 C44	42.682	35.99	40.224	C.3	1	UNK0	0
45	 C45	43.261	32.753	39.253	C.3	1	UNK0	0
46	 C46	43.054	34.944	39.421	C.3	1	UNK0	0
47	 C47	43.056	37.169	42.29	C.3	1	UNK0	0
48	 C48	43.664	33.834	40.022	C.3	1	UNK0	0
49	 C49	43.277	36.037	41.505	C.3	1	UNK0	0
50	 C50	42.4	34.664	38.187	C.3	1	UNK0	0
51	 C51	41.228	36.786	38.438	C.3	1	UNK0	0
52	 C52	43.915	37.555	43.341	C.3	1	UNK0	0
53	 C53	44.17	33.779	41.351	C.3	1	UNK0	0
54	 C54	40.428	37.877	38.027	C.3	1	UNK0	0
55	 C55	44.735	35.392	43.268	C.3	1	UNK0	0
56	 C56	45.382	34.395	43.624	C.3	1	UNK0	0
57	 C57	45.931	33.257	43.789	C.3	1	UNK0	0
58	 C58	45.357	32.18	42.97	C.3	1	UNK0	0
59	 C59	44.596	32.473	41.809	C.3	1	UNK0	0
60	 C60	44.924	36.739	43.804	C.3	1	UNK0	0
61	 C61	41.357	37.905	40.654	C.3	1	UNK0	0
62	 C62	41.957	37.948	41.931	C.3	1	UNK0	0
63	 C63	41.65	38.956	42.813	C.3	1	UNK0	0
64	 C64	40.545	38.98	40.252	C.3	1	UNK0	0
65	 C65	40.101	38.948	38.924	C.3	1	UNK0	0
66	 C66	42.548	39.35	43.779	C.3	1	UNK0	0
67	 C67	43.731	38.763	43.998	C.3	1	UNK0	0
68	 C68	44.909	30.034	45.736	C.3	1	UNK0	0
69	 C69	45.799	30.732	44.924	C.3	1	UNK0	0
70	 C70	45.893	37.274	44.676	C.3	1	UNK0	0
71	 C71	46.522	31.746	45.58	C.3	1	UNK0	0
72	 C72	46.4	33.032	45.113	C.3	1	UNK0	0
73	 C73	47.258	31.805	46.808	C.3	1	UNK0	0
74	 C74	44.7	39.419	44.764	C.3	1	UNK0	0
75	 C75	46.958	39.49	45.437	C.3	1	UNK0	0
76	 C76	45.876	38.698	44.976	C.3	1	UNK0	0
77	H77	45.792	36.748	45.625	 H	1	UNK0	0
78	H78	46.872	30.733	45.379	 H	1	UNK0	0
79	H79	42.442	30.396	28.971	 H	1	UNK0	0
80	H80	45.614	33.456	45.737	 H	1	UNK0	0
81	H81	44.453	30.392	29.446	 H	1	UNK0	0
82	H82	47.387	33.49	45.182	 H	1	UNK0	0
83	H83	43.809	30.018	31.15	 H	1	UNK0	0
84	H84	48.154	32.409	46.665	 H	1	UNK0	0
85	H85	42.081	29.916	30.594	 H	1	UNK0	0
86	H86	46.637	32.254	47.583	 H	1	UNK0	0
87	H87	42.544	31.19	28.098	 H	1	UNK0	0
88	H88	47.544	30.797	47.109	 H	1	UNK0	0
89	H89	44.606	31.6	28.476	 H	1	UNK0	0
90	H90	44.256	39.571	45.748	 H	1	UNK0	0
91	H91	42.743	34.299	28.535	 H	1	UNK0	0
92	H92	44.96	40.348	44.257	 H	1	UNK0	0
93	H93	41.11	33.757	25.298	 H	1	UNK0	0
94	H94	47.791	39.407	44.739	 H	1	UNK0	0
95	H95	41.543	35.429	25.854	 H	1	UNK0	0
96	H96	46.644	40.532	45.504	 H	1	UNK0	0
97	H97	43.621	34.917	26.146	 H	1	UNK0	0
98	H98	47.272	39.14	46.42	 H	1	UNK0	0
99	H99	43.189	33.885	24.676	 H	1	UNK0	0
100	H100	46.479	37.838	45.269	 H	1	UNK0	0
101	H101	44.652	33.331	26.638	 H	1	UNK0	0
102	H102	41.027	34.987	27.742	 H	1	UNK0	0
103	H103	40.428	33.308	27.174	 H	1	UNK0	0
104	H104	44.21	33.2	28.097	 H	1	UNK0	0
105	H105	40.771	34.963	29.009	 H	1	UNK0	0
106	H106	39.813	33.527	29.796	 H	1	UNK0	0
107	H107	39.586	34.592	31.392	 H	1	UNK0	0
108	H108	40.285	36.054	30.493	 H	1	UNK0	0
109	H109	42.116	32.4	29.631	 H	1	UNK0	0
110	H110	43.545	32.934	30.499	 H	1	UNK0	0
111	H111	43.241	32.667	31.145	 H	1	UNK0	0
112	H112	45.267	31.742	26.105	 H	1	UNK0	0
113	H113	43.68	31.027	25.736	 H	1	UNK0	0
114	H114	44.375	32.257	24.654	 H	1	UNK0	0
115	H115	39.957	30.75	34.684	 H	1	UNK0	0
116	H116	41.307	29.588	35.076	 H	1	UNK0	0
117	H117	40.421	29.454	36.904	 H	1	UNK0	0
118	H118	39.381	30.941	36.636	 H	1	UNK0	0
119	H119	42.227	31.051	37.361	 H	1	UNK0	0
120	H120	43.265	30.608	32.818	 H	1	UNK0	0
121	H121	41.384	30.847	32.563	 H	1	UNK0	0
122	H122	41.949	30.494	34.934	 H	1	UNK0	0
123	H123	42.664	31.525	32.871	 H	1	UNK0	0
124	H124	40.855	36.802	32.973	 H	1	UNK0	0
125	H125	40.039	35.342	33.388	 H	1	UNK0	0
126	H126	42.008	35.62	36.166	 H	1	UNK0	0
127	H127	43.296	34.007	36.111	 H	1	UNK0	0
128	H128	42.48	36.313	34.058	 H	1	UNK0	0
129	H129	41.969	35.941	31.416	 H	1	UNK0	0
130	H130	40.287	35.083	36.25	 H	1	UNK0	0
131	H131	43.36	34.187	31.162	 H	1	UNK0	0
132	H132	43.907	34.708	32.96	 H	1	UNK0	0
133	H133	44.067	33.022	33.949	 H	1	UNK0	0
134	H134	41.08	33.133	36.284	 H	1	UNK0	0
135	H135	39.319	36.693	36.419	 H	1	UNK0	0
136	H136	40.664	37.734	35.895	 H	1	UNK0	0
137	H137	39.942	36.57	34.757	 H	1	UNK0	0
138	H138	41.42	32.584	38.224	 H	1	UNK0	0
139	H139	41.062	34.8	37.171	 H	1	UNK0	0
140	H140	41.135	29.653	38.649	 H	1	UNK0	0
141	H141	40.215	31.238	39.286	 H	1	UNK0	0
142	H142	42.48	29.778	39.73	 H	1	UNK0	0
143	H143	41.471	31.044	40.778	 H	1	UNK0	0
144	H144	42.764	29.8	41.655	 H	1	UNK0	0
145	H145	44.497	29.398	41.593	 H	1	UNK0	0
146	H146	43.859	30.386	42.929	 H	1	UNK0	0
147	H147	43.802	31.007	39.191	 H	1	UNK0	0
148	H148	44.938	31.154	40.559	 H	1	UNK0	0
149	H149	46.178	30.383	43.003	 H	1	UNK0	0
150	H150	44.381	30.484	43.484	 H	1	UNK0	0
151	H151	44.029	33.95	42.233	 H	1	UNK0	0
152	H152	42.508	32.989	37.089	 H	1	UNK0	0
153	H153	40.888	36.932	39.079	 H	1	UNK0	0
154	H154	42.536	37.052	40.419	 H	1	UNK0	0
155	H155	43.931	32.172	38.619	 H	1	UNK0	0
156	H156	43.859	35.557	39.017	 H	1	UNK0	0
157	H157	43.341	36.888	43.304	 H	1	UNK0	0
158	H158	44.742	33.911	40.166	 H	1	UNK0	0
159	H159	43.658	35.303	40.795	 H	1	UNK0	0
160	H160	42.521	34.914	37.133	 H	1	UNK0	0
161	H161	40.968	35.87	37.907	 H	1	UNK0	0
162	H162	44.064	37.473	42.264	 H	1	UNK0	0
163	H163	44.971	33.729	42.089	 H	1	UNK0	0
164	H164	39.459	37.407	37.862	 H	1	UNK0	0
165	H165	40.939	38.331	37.178	 H	1	UNK0	0
166	H166	44.074	35.895	43.974	 H	1	UNK0	0
167	H167	44.43	33.918	43.856	 H	1	UNK0	0
168	H168	46.336	34.921	43.587	 H	1	UNK0	0
169	H169	46.907	33.253	43.304	 H	1	UNK0	0
170	H170	46.028	32.017	42.126	 H	1	UNK0	0
171	H171	45.56	32.972	41.708	 H	1	UNK0	0
172	H172	45.874	36.463	44.262	 H	1	UNK0	0
173	H173	40.436	37.338	40.792	 H	1	UNK0	0
174	H174	41.199	37.166	41.96	 H	1	UNK0	0
175	H175	40.841	38.522	43.401	 H	1	UNK0	0
176	H176	41.433	39.839	42.212	 H	1	UNK0	0
177	H177	41.171	39.868	40.332	 H	1	UNK0	0
178	H178	39.667	38.996	40.898	 H	1	UNK0	0
179	H179	39.027	38.812	39.051	 H	1	UNK0	0
180	H180	40.475	39.859	38.457	 H	1	UNK0	0
181	H181	42.01	39.064	44.683	 H	1	UNK0	0
182	H182	42.774	40.394	43.562	 H	1	UNK0	0
183	H183	44.293	38.408	44.862	 H	1	UNK0	0
184	H184	43.965	29.9	45.208	 H	1	UNK0	0
185	H185	45.329	29.059	45.982	 H	1	UNK0	0
186	H186	44.735	30.597	46.653	 H	1	UNK0	0
187	H187	46.635	30.062	44.726	 H	1	UNK0	0
188	H188	46.829	37.137	44.135	 H	1	UNK0	0
@<TRIPOS>BOND								
1 1 2 1								
2 1 3 1								
3 1 79 1								
4 1 81 1								
5 2 14 1								
6 2 83 1								
7 2 85 1								
8 3 9 1								
9 3 87 1								
10 3 89 1								
11 4 8 1								
12 4 9 1								
13 4 12 1								
14 4 91 1								
15 5 6 1								
16 5 8 1								
17 5 93 1								
18 5 95 1								
19 6 7 1								
20 6 97 1								
21 6 99 1								
22 7 9 1								
23 7 15 1								
24 7 101 1								
25 8 102 1								
26 8 103 1								
27 9 104 1								
28 10 11 1								
29 10 12 1								
30 10 105 1								
31 10 106 1								
32 11 26 1								
33 11 107 1								
34 11 108 1								
35 12 13 1								
36 12 109 1								
37 13 14 1								
38 13 28 1								
39 13 110 1								
40 14 19 1								
41 14 111 1								
42 15 112 1								
43 15 113 1								
44 15 114 1								
45 16 17 1								
46 16 20 1								
47 16 115 1								
48 16 116 1								
49 17 18 1								
50 17 117 1								
51 17 118 1								
52 18 33 1								
53 18 35 1								
54 18 119 1								
55 19 21 1								
56 19 120 1								
57 19 121 1								
58 20 21 1								
59 20 31 1								
60 20 122 1								
61 21 30 1								
62 21 123 1								
63 22 25 1								
64 22 26 1								
65 22 124 1								
66 22 125 1								
67 23 24 1								
68 23 25 1								
69 23 27 1								
70 23 126 1								
71 24 30 1								
72 24 31 1								
73 24 127 1								
74 25 29 1								
75 25 128 1								
76 26 28 1								
77 26 129 1								
78 27 32 1								
79 27 34 1								
80 27 130 1								
81 28 29 1								
82 28 131 1								
83 29 30 1								
84 29 132 1								
85 30 133 1								
86 31 33 1								
87 31 134 1								
88 32 135 1								
89 32 136 1								
90 32 137 1								
91 33 42 1								
92 33 138 1								
93 34 50 1								
94 34 51 1								
95 34 139 1								
96 35 36 1								
97 35 140 1								
98 35 141 1								
99 36 38 1								
100 36 142 1								
101 36 143 1								
102 37 39 1								
103 37 144 1								
104 37 145 1								
105 37 146 1								
106 38 39 1								
107 38 45 1								
108 38 147 1								
109 39 59 1								
110 39 148 1								
111 40 58 1								
112 40 69 1								
113 40 149 1								
114 40 150 1								
115 41 49 1								
116 41 53 1								
117 41 55 1								
118 41 151 1								
119 42 45 1								
120 42 50 1								
121 42 152 1								
122 43 44 1								
123 43 51 1								
124 43 61 1								
125 43 153 1								
126 44 46 1								
127 44 49 1								
128 44 154 1								
129 45 48 1								
130 45 155 1								
131 46 48 1								
132 46 50 1								
133 46 156 1								
134 47 49 1								
135 47 52 1								
136 47 62 1								
137 47 157 1								
138 48 53 1								
139 48 158 1								
140 49 159 1								
141 50 160 1								
142 51 54 1								
143 51 161 1								
144 52 60 1								
145 52 67 1								
146 52 162 1								
147 53 59 1								
148 53 163 1								
149 54 65 1								
150 54 164 1								
151 54 165 1								
152 55 56 1								
153 55 60 1								
154 55 166 1								
155 56 57 1								
156 56 167 1								
157 56 168 1								
158 57 58 1								
159 57 72 1								
160 57 169 1								
161 58 59 1								
162 58 170 1								
163 59 171 1								
164 60 70 1								
165 60 172 1								
166 61 62 1								
167 61 64 1								
168 61 173 1								
169 62 63 1								
170 62 174 1								
171 63 66 1								
172 63 175 1								
173 63 176 1								
174 64 65 1								
175 64 177 1								
176 64 178 1								
177 65 179 1								
178 65 180 1								
179 66 67 1								
180 66 181 1								
181 66 182 1								
182 67 74 1								
183 67 183 1								
184 68 69 1								
185 68 184 1								
186 68 185 1								
187 68 186 1								
188 69 71 1								
189 69 187 1								
190 70 76 1								
191 70 77 1								
192 70 188 1								
193 71 72 1								
194 71 73 1								
195 71 78 1								
196 72 80 1								
197 72 82 1								
198 73 84 1								
199 73 86 1								
200 73 88 1								
201 74 76 1								
202 74 90 1								
203 74 92 1								
204 75 76 1								
205 75 94 1								
206 75 96 1								
207 75 98 1								
208 76 100 1								
@<TRIPOS>SUBSTRUCTURE								
1	UNK1	1	GROUP	1 ****	UNK			