# created with PyMOL 2.5.4								
@<TRIPOS>MOLECULE								
full_87								
480 549 1               								
SMALL								
USER_CHARGES								
@<TRIPOS>ATOM								
1	 C01	45.512	30.064	26.493	C.3	1	UNK0	0
2	 C02	47.47	31.124	26.805	C.3	1	UNK0	0
3	 C03	49.487	30.228	27.671	C.3	1	UNK0	0
4	 C04	45.41	31.388	26.09	C.3	1	UNK0	0
5	 C05	48.728	31.344	27.226	C.3	1	UNK0	0
6	 C06	50.843	30.626	27.885	C.3	1	UNK0	0
7	 C07	56.304	31.278	27.701	C.3	1	UNK0	0
8	 C08	55.374	30.408	29.593	C.3	1	UNK0	0
9	 C09	53.386	31.51	28.947	C.3	1	UNK0	0
10	 C10	52.921	30.248	29.083	C.3	1	UNK0	0
11	 C11	56.292	30.157	28.518	C.3	1	UNK0	0
12	 C12	60.495	30.179	25.917	C.3	1	UNK0	0
13	 C13	58.355	30.683	26.735	C.3	1	UNK0	0
14	 C14	59.322	30.913	25.737	C.3	1	UNK0	0
15	 C15	57.246	31.534	26.755	C.3	1	UNK0	0
16	 C16	43.001	37.598	28.018	C.3	1	UNK0	0
17	 C17	42.406	37.342	30.417	C.3	1	UNK0	0
18	 C18	42.021	37.655	29.056	C.3	1	UNK0	0
19	 C19	43.8	37.284	30.728	C.3	1	UNK0	0
20	 C20	44.361	37.253	28.335	C.3	1	UNK0	0
21	 C21	50.519	34.31	28.276	C.3	1	UNK0	0
22	 C22	45.399	37.175	27.349	C.3	1	UNK0	0
23	 C23	46.683	36.815	27.893	C.3	1	UNK0	0
24	 C24	46.607	32.07	26.259	C.3	1	UNK0	0
25	 C25	47.632	36.14	27.08	C.3	1	UNK0	0
26	 C26	46.268	34.421	25.503	C.3	1	UNK0	0
27	 C27	47.789	36.259	25.641	C.3	1	UNK0	0
28	 C28	48.157	33.742	27.027	C.3	1	UNK0	0
29	 C29	46.947	33.456	26.295	C.3	1	UNK0	0
30	 C30	48.348	35.007	27.611	C.3	1	UNK0	0
31	 C31	49.048	32.688	27.354	C.3	1	UNK0	0
32	 C32	50.286	33.012	27.832	C.3	1	UNK0	0
33	 C33	45.128	37.622	26.006	C.3	1	UNK0	0
34	 C34	44.741	37.197	29.71	C.3	1	UNK0	0
35	 C35	46.068	37.394	30.127	C.3	1	UNK0	0
36	 C36	48.448	37.073	29.754	C.3	1	UNK0	0
37	 C37	49.58	36.362	29.25	C.3	1	UNK0	0
38	 C38	47.092	37.033	29.242	C.3	1	UNK0	0
39	 C39	49.466	35.22	28.421	C.3	1	UNK0	0
40	 C40	48.718	37.838	30.915	C.3	1	UNK0	0
41	 C41	54.729	31.635	29.206	C.3	1	UNK0	0
42	 C42	51.253	32.002	27.965	C.3	1	UNK0	0
43	 C43	56.513	33.94	26.735	C.3	1	UNK0	0
44	 C44	55.458	32.29	28.179	C.3	1	UNK0	0
45	 C45	52.916	33.81	28.246	C.3	1	UNK0	0
46	 C46	52.57	32.435	28.28	C.3	1	UNK0	0
47	 C47	55.399	33.6	27.627	C.3	1	UNK0	0
48	 C48	54.224	34.356	28.089	C.3	1	UNK0	0
49	 C49	51.826	34.706	28.505	C.3	1	UNK0	0
50	 C50	54.296	35.662	28.606	C.3	1	UNK0	0
51	 C51	51.136	37.61	30.746	C.3	1	UNK0	0
52	 C52	54.782	37.836	30.35	C.3	1	UNK0	0
53	 C53	53.47	37.364	30.368	C.3	1	UNK0	0
54	 C54	50.896	36.655	29.713	C.3	1	UNK0	0
55	 C55	51.969	35.922	29.17	C.3	1	UNK0	0
56	 C56	53.282	36.328	29.399	C.3	1	UNK0	0
57	 C57	55.548	37.493	29.219	C.3	1	UNK0	0
58	 C58	55.477	36.371	28.405	C.3	1	UNK0	0
59	 C59	56.652	36.279	27.534	C.3	1	UNK0	0
60	 C60	57.084	35.269	26.597	C.3	1	UNK0	0
61	 C61	57.382	37.451	27.928	C.3	1	UNK0	0
62	 C62	57.248	32.826	26.169	C.3	1	UNK0	0
63	 C63	58.081	35.62	25.592	C.3	1	UNK0	0
64	 C64	59.042	36.702	25.553	C.3	1	UNK0	0
65	 C65	59.336	37.714	26.525	C.3	1	UNK0	0
66	 C66	65.678	37.508	26.566	C.3	1	UNK0	0
67	 C67	65.738	36.532	25.544	C.3	1	UNK0	0
68	 C68	66.896	37.887	27.18	C.3	1	UNK0	0
69	 C69	41.79	38.895	26.054	C.3	1	UNK0	0
70	 C70	40.554	39.369	26.546	C.3	1	UNK0	0
71	 C71	42.84	38.186	26.727	C.3	1	UNK0	0
72	 C72	40.253	39.201	27.922	C.3	1	UNK0	0
73	 C73	43.986	38.421	25.952	C.3	1	UNK0	0
74	 C74	40.203	38.841	30.189	C.3	1	UNK0	0
75	 C75	40.842	38.441	28.979	C.3	1	UNK0	0
76	 C76	40.568	38.565	31.533	C.3	1	UNK0	0
77	 C77	50.012	38.126	31.419	C.3	1	UNK0	0
78	 C78	46.329	38.037	31.379	C.3	1	UNK0	0
79	 C79	52.443	37.948	31.201	C.3	1	UNK0	0
80	 C80	55.45	38.397	31.442	C.3	1	UNK0	0
81	 C81	56.742	38.061	28.993	C.3	1	UNK0	0
82	 C82	56.853	38.563	31.297	C.3	1	UNK0	0
83	 C83	61.065	39.382	27.068	C.3	1	UNK0	0
84	 C84	62.471	39.329	27.274	C.3	1	UNK0	0
85	 C85	60.514	38.434	26.263	C.3	1	UNK0	0
86	 C86	58.624	38.03	27.651	C.3	1	UNK0	0
87	 C87	60.393	39.668	28.259	C.3	1	UNK0	0
88	 C88	59.62	39.229	30.91	C.3	1	UNK0	0
89	 C89	58.729	39.025	29.844	C.3	1	UNK0	0
90	 C90	61.358	39.84	29.324	C.3	1	UNK0	0
91	 C91	60.986	39.506	30.664	C.3	1	UNK0	0
92	 C92	57.424	38.605	30.024	C.3	1	UNK0	0
93	 C93	62.629	39.605	28.684	C.3	1	UNK0	0
94	 C94	59.18	39.004	28.517	C.3	1	UNK0	0
95	 C95	63.273	38.403	26.51	C.3	1	UNK0	0
96	 C96	64.52	38.104	27.134	C.3	1	UNK0	0
97	 C97	69.156	38.658	26.828	C.3	1	UNK0	0
98	 C98	69.3	38.775	28.226	C.3	1	UNK0	0
99	 C99	68.035	37.953	26.399	C.3	1	UNK0	0
100	C100	64.669	38.467	28.478	C.3	1	UNK0	0
101	C101	64.102	38.991	30.666	C.3	1	UNK0	0
102	C102	68.303	38.338	29.142	C.3	1	UNK0	0
103	C103	67.701	37.945	31.576	C.3	1	UNK0	0
104	C104	65.473	38.58	30.598	C.3	1	UNK0	0
105	C105	63.696	39.033	29.302	C.3	1	UNK0	0
106	C106	68.63	38.193	30.527	C.3	1	UNK0	0
107	C107	65.801	38.279	29.253	C.3	1	UNK0	0
108	C108	67.018	38.11	28.578	C.3	1	UNK0	0
109	C109	71.408	39.825	27.791	C.3	1	UNK0	0
110	C110	70.311	38.763	25.983	C.3	1	UNK0	0
111	C111	72.685	39.428	25.756	C.3	1	UNK0	0
112	C112	71.432	39.468	26.435	C.3	1	UNK0	0
113	C113	69.932	38.54	31.001	C.3	1	UNK0	0
114	C114	70.515	39.249	28.714	C.3	1	UNK0	0
115	C115	70.795	39.178	30.086	C.3	1	UNK0	0
116	C116	71.825	39.988	30.602	C.3	1	UNK0	0
117	C117	41.778	37.866	31.603	C.3	1	UNK0	0
118	C118	44.034	37.894	31.997	C.3	1	UNK0	0
119	C119	68.136	37.791	32.923	C.3	1	UNK0	0
120	C120	70.383	34.835	37.727	C.3	1	UNK0	0
121	C121	41.129	39.82	33.48	C.3	1	UNK0	0
122	C122	40.103	39.39	32.594	C.3	1	UNK0	0
123	C123	42.476	39.362	33.324	C.3	1	UNK0	0
124	C124	42.772	38.252	32.53	C.3	1	UNK0	0
125	C125	47.657	38.334	31.694	C.3	1	UNK0	0
126	C126	49.173	39.456	33.344	C.3	1	UNK0	0
127	C127	46.971	39.528	33.716	C.3	1	UNK0	0
128	C128	47.928	39.028	32.871	C.3	1	UNK0	0
129	C129	45.615	39.307	33.402	C.3	1	UNK0	0
130	C130	50.217	38.987	32.535	C.3	1	UNK0	0
131	C131	45.307	38.441	32.3	C.3	1	UNK0	0
132	C132	55.243	38.881	35.021	C.3	1	UNK0	0
133	C133	55.396	39.711	37.214	C.3	1	UNK0	0
134	C134	55.831	38.615	33.803	C.3	1	UNK0	0
135	C135	53.921	39.322	34.662	C.3	1	UNK0	0
136	C136	51.435	39.551	32.721	C.3	1	UNK0	0
137	C137	53.683	39.008	33.229	C.3	1	UNK0	0
138	C138	56.065	39.042	36.185	C.3	1	UNK0	0
139	C139	54.938	38.62	32.734	C.3	1	UNK0	0
140	C140	52.574	38.857	32.335	C.3	1	UNK0	0
141	C141	59.96	39.07	33.313	C.3	1	UNK0	0
142	C142	59.108	38.992	32.195	C.3	1	UNK0	0
143	C143	61.844	39.281	31.745	C.3	1	UNK0	0
144	C144	59.359	39.005	34.568	C.3	1	UNK0	0
145	C145	61.251	39.089	36.199	C.3	1	UNK0	0
146	C146	57.505	38.96	36.049	C.3	1	UNK0	0
147	C147	61.328	39.14	33.052	C.3	1	UNK0	0
148	C148	62.391	39.023	33.934	C.3	1	UNK0	0
149	C149	58.765	39.036	36.758	C.3	1	UNK0	0
150	C150	59.873	39.025	35.858	C.3	1	UNK0	0
151	C151	57.97	38.918	34.716	C.3	1	UNK0	0
152	C152	61.483	38.984	37.578	C.3	1	UNK0	0
153	C153	62.402	39.074	35.345	C.3	1	UNK0	0
154	C154	57.184	38.716	33.629	C.3	1	UNK0	0
155	C155	57.736	38.727	32.367	C.3	1	UNK0	0
156	C156	65.959	38.415	33.034	C.3	1	UNK0	0
157	C157	63.257	39.118	31.782	C.3	1	UNK0	0
158	C158	68.541	38.372	37.159	C.3	1	UNK0	0
159	C159	67.077	38.025	33.77	C.3	1	UNK0	0
160	C160	63.568	38.969	33.159	C.3	1	UNK0	0
161	C161	67.213	38.201	35.131	C.3	1	UNK0	0
162	C162	66.069	38.537	35.857	C.3	1	UNK0	0
163	C163	64.813	38.778	33.742	C.3	1	UNK0	0
164	C164	63.708	39.077	35.908	C.3	1	UNK0	0
165	C165	66.134	38.374	37.251	C.3	1	UNK0	0
166	C166	64.874	38.823	35.156	C.3	1	UNK0	0
167	C167	68.475	38.295	35.727	C.3	1	UNK0	0
168	C168	63.87	39.03	37.283	C.3	1	UNK0	0
169	C169	66.322	38.328	31.67	C.3	1	UNK0	0
170	C170	67.337	38.02	37.866	C.3	1	UNK0	0
171	C171	69.368	38.183	33.41	C.3	1	UNK0	0
172	C172	69.514	38.508	34.793	C.3	1	UNK0	0
173	C173	70.215	38.678	32.403	C.3	1	UNK0	0
174	C174	71.154	39.629	32.853	C.3	1	UNK0	0
175	C175	71.112	39.629	36.42	C.3	1	UNK0	0
176	C176	70.486	39.439	35.157	C.3	1	UNK0	0
177	C177	71.003	38.725	37.547	C.3	1	UNK0	0
178	C178	69.762	38.144	37.868	C.3	1	UNK0	0
179	C179	66.128	32.614	38.672	C.3	1	UNK0	0
180	C180	68.545	36.338	39.007	C.3	1	UNK0	0
181	C181	65.108	36.6	39.7	C.3	1	UNK0	0
182	C182	66.959	34.834	39.47	C.3	1	UNK0	0
183	C183	66.197	33.581	39.746	C.3	1	UNK0	0
184	C184	66.359	36.116	39.226	C.3	1	UNK0	0
185	C185	68.348	34.97	39.22	C.3	1	UNK0	0
186	C186	67.358	36.994	38.828	C.3	1	UNK0	0
187	C187	64.526	37.805	39.153	C.3	1	UNK0	0
188	C188	73.762	37.755	40.091	C.3	1	UNK0	0
189	C189	72.568	37.488	39.306	C.3	1	UNK0	0
190	C190	71.961	36.176	39.329	C.3	1	UNK0	0
191	C191	69.73	36.996	38.667	C.3	1	UNK0	0
192	C192	70.81	36.026	38.435	C.3	1	UNK0	0
193	C193	58.642	39.358	40.379	C.3	1	UNK0	0
194	C194	58.286	39.662	39.056	C.3	1	UNK0	0
195	C195	59.789	38.585	40.732	C.3	1	UNK0	0
196	C196	60.808	38.453	39.784	C.3	1	UNK0	0
197	C197	60.43	38.792	38.476	C.3	1	UNK0	0
198	C198	62.129	38.015	40.131	C.3	1	UNK0	0
199	C199	59.11	39.074	38.094	C.3	1	UNK0	0
200	C200	63.166	38.256	39.23	C.3	1	UNK0	0
201	C201	62.785	38.924	38.078	C.3	1	UNK0	0
202	C202	64.95	38.451	37.946	C.3	1	UNK0	0
203	C203	74.505	39.372	38.541	C.3	1	UNK0	0
204	C204	74.849	38.397	39.447	C.3	1	UNK0	0
205	C205	72.202	38.5	38.318	C.3	1	UNK0	0
206	C206	73.227	39.444	37.994	C.3	1	UNK0	0
207	H207	43.616	38.196	24.952	 H	1	UNK0	0
208	H208	60.886	38.805	36.193	 H	1	UNK0	0
209	H209	44.315	39.429	26.203	 H	1	UNK0	0
210	H210	57.123	39.494	34.345	 H	1	UNK0	0
211	H211	46.316	29.968	27.223	 H	1	UNK0	0
212	H212	39.339	38.179	30.129	 H	1	UNK0	0
213	H213	61.346	40.051	37.401	 H	1	UNK0	0
214	H214	44.572	29.748	26.945	 H	1	UNK0	0
215	H215	40.178	39.929	30.134	 H	1	UNK0	0
216	H216	61.34	39.307	35.42	 H	1	UNK0	0
217	H217	45.73	29.436	25.629	 H	1	UNK0	0
218	H218	40.947	37.524	28.4	 H	1	UNK0	0
219	H219	57.3	37.644	33.47	 H	1	UNK0	0
220	H220	46.981	30.964	27.766	 H	1	UNK0	0
221	H221	39.841	37.853	31.923	 H	1	UNK0	0
222	H222	58.441	37.968	32.028	 H	1	UNK0	0
223	H223	47.555	30.345	26.047	 H	1	UNK0	0
224	H224	49.533	37.564	32.221	 H	1	UNK0	0
225	H225	64.966	38.754	32.737	 H	1	UNK0	0
226	H226	49.455	29.444	26.915	 H	1	UNK0	0
227	H227	45.487	37.353	31.482	 H	1	UNK0	0
228	H228	64.033	39.481	31.108	 H	1	UNK0	0
229	H229	49.067	29.851	28.604	 H	1	UNK0	0
230	H230	53.205	38.067	31.971	 H	1	UNK0	0
231	H231	68.609	39.46	37.185	 H	1	UNK0	0
232	H232	44.653	31.873	26.706	 H	1	UNK0	0
233	H233	54.637	39.098	31.25	 H	1	UNK0	0
234	H234	66.83	37.139	34.354	 H	1	UNK0	0
235	H235	45.132	31.417	25.036	 H	1	UNK0	0
236	H236	56.572	39.077	28.635	 H	1	UNK0	0
237	H237	64.657	38.93	33.162	 H	1	UNK0	0
238	H238	49.682	31.234	26.71	 H	1	UNK0	0
239	H239	56.084	38.121	31.931	 H	1	UNK0	0
240	H240	67.307	37.142	35.371	 H	1	UNK0	0
241	H241	51.311	30.314	26.951	 H	1	UNK0	0
242	H242	60.899	40.237	26.413	 H	1	UNK0	0
243	H243	65.924	39.605	36.019	 H	1	UNK0	0
244	H244	51.146	30.167	28.826	 H	1	UNK0	0
245	H245	63.054	40.073	26.731	 H	1	UNK0	0
246	H246	65.109	39.604	33.096	 H	1	UNK0	0
247	H247	55.973	30.864	26.749	 H	1	UNK0	0
248	H248	60.169	39.063	25.443	 H	1	UNK0	0
249	H249	63.586	40.116	35.602	 H	1	UNK0	0
250	H250	55.866	30.475	30.563	 H	1	UNK0	0
251	H251	61.29	37.679	26.137	 H	1	UNK0	0
252	H252	66.614	39.224	37.735	 H	1	UNK0	0
253	H253	54.65	29.599	29.685	 H	1	UNK0	0
254	H254	58.105	37.114	27.933	 H	1	UNK0	0
255	H255	65.283	39.705	34.663	 H	1	UNK0	0
256	H256	53.173	32.259	29.71	 H	1	UNK0	0
257	H257	59.899	40.633	28.144	 H	1	UNK0	0
258	H258	69.123	37.561	36.206	 H	1	UNK0	0
259	H259	51.953	30.163	28.59	 H	1	UNK0	0
260	H260	59.919	40.266	31.062	 H	1	UNK0	0
261	H261	64.196	40.057	37.121	 H	1	UNK0	0
262	H262	53.623	29.55	28.626	 H	1	UNK0	0
263	H263	58.655	40.057	30.186	 H	1	UNK0	0
264	H264	65.684	38.493	30.802	 H	1	UNK0	0
265	H265	52.811	30.013	30.142	 H	1	UNK0	0
266	H266	61.445	40.823	29.787	 H	1	UNK0	0
267	H267	67.37	38.764	38.662	 H	1	UNK0	0
268	H268	57.29	29.959	28.908	 H	1	UNK0	0
269	H269	61.635	40.379	30.593	 H	1	UNK0	0
270	H270	69.928	37.297	33.71	 H	1	UNK0	0
271	H271	55.968	29.286	27.949	 H	1	UNK0	0
272	H272	57.182	39.657	29.874	 H	1	UNK0	0
273	H273	69.985	37.537	34.949	 H	1	UNK0	0
274	H274	61.275	30.832	26.307	 H	1	UNK0	0
275	H275	63.077	40.584	28.852	 H	1	UNK0	0
276	H276	70.755	37.763	32.162	 H	1	UNK0	0
277	H277	60.313	29.369	26.624	 H	1	UNK0	0
278	H278	58.627	39.752	27.949	 H	1	UNK0	0
279	H279	72.042	39.589	32.222	 H	1	UNK0	0
280	H280	60.814	29.763	24.961	 H	1	UNK0	0
281	H281	63.491	38.873	25.551	 H	1	UNK0	0
282	H282	70.716	40.626	32.801	 H	1	UNK0	0
283	H283	58.871	30.871	27.676	 H	1	UNK0	0
284	H284	62.713	37.476	26.388	 H	1	UNK0	0
285	H285	71.431	39.407	33.883	 H	1	UNK0	0
286	H286	57.986	29.665	26.608	 H	1	UNK0	0
287	H287	64.155	37.72	26.182	 H	1	UNK0	0
288	H288	70.542	40.479	36.795	 H	1	UNK0	0
289	H289	58.887	30.593	24.79	 H	1	UNK0	0
290	H290	68.862	39.671	26.555	 H	1	UNK0	0
291	H291	72.179	39.702	36.208	 H	1	UNK0	0
292	H292	59.574	31.973	25.738	 H	1	UNK0	0
293	H293	68.414	39.408	28.188	 H	1	UNK0	0
294	H294	69.855	40.328	35.162	 H	1	UNK0	0
295	H295	56.887	31.133	25.807	 H	1	UNK0	0
296	H296	67.702	38.532	25.537	 H	1	UNK0	0
297	H297	71.311	39.254	34.47	 H	1	UNK0	0
298	H298	42.389	36.714	27.84	 H	1	UNK0	0
299	H299	68.358	36.925	26.233	 H	1	UNK0	0
300	H300	70.578	37.759	37.819	 H	1	UNK0	0
301	H301	41.92	36.383	30.237	 H	1	UNK0	0
302	H302	64.591	38.406	27.392	 H	1	UNK0	0
303	H303	69.743	39.072	38.439	 H	1	UNK0	0
304	H304	41.653	36.749	28.574	 H	1	UNK0	0
305	H305	63.826	39.644	31.494	 H	1	UNK0	0
306	H306	65.71	33.088	37.784	 H	1	UNK0	0
307	H307	44.138	36.259	30.883	 H	1	UNK0	0
308	H308	67.991	37.783	30.026	 H	1	UNK0	0
309	H309	67.129	32.246	38.449	 H	1	UNK0	0
310	H310	44.061	36.272	27.966	 H	1	UNK0	0
311	H311	67.709	37.104	30.883	 H	1	UNK0	0
312	H312	65.492	31.781	38.973	 H	1	UNK0	0
313	H313	50.051	34.241	29.258	 H	1	UNK0	0
314	H314	66.085	39.15	31.297	 H	1	UNK0	0
315	H315	69.181	36.448	39.885	 H	1	UNK0	0
316	H316	45.525	36.47	26.527	 H	1	UNK0	0
317	H317	62.701	39.106	29.741	 H	1	UNK0	0
318	H318	65.333	36.885	40.728	 H	1	UNK0	0
319	H319	45.966	37.635	27.943	 H	1	UNK0	0
320	H320	68.466	37.266	29.978	 H	1	UNK0	0
321	H321	64.383	35.802	39.537	 H	1	UNK0	0
322	H322	46.62	32.681	25.356	 H	1	UNK0	0
323	H323	66.448	37.465	29.581	 H	1	UNK0	0
324	H324	66.711	34.114	40.25	 H	1	UNK0	0
325	H325	47.917	37.168	27.305	 H	1	UNK0	0
326	H326	67.339	37.317	29.254	 H	1	UNK0	0
327	H327	66.745	33.083	40.546	 H	1	UNK0	0
328	H328	45.35	34.724	26.007	 H	1	UNK0	0
329	H329	71.044	40.851	27.742	 H	1	UNK0	0
330	H330	65.176	33.864	40.003	 H	1	UNK0	0
331	H331	46.908	35.292	25.362	 H	1	UNK0	0
332	H332	72.409	39.625	28.174	 H	1	UNK0	0
333	H333	65.547	35.864	38.545	 H	1	UNK0	0
334	H334	46.023	33.988	24.533	 H	1	UNK0	0
335	H335	69.958	39.356	25.139	 H	1	UNK0	0
336	H336	68.951	34.593	40.046	 H	1	UNK0	0
337	H337	48.846	36.19	25.385	 H	1	UNK0	0
338	H338	70.64	37.747	25.767	 H	1	UNK0	0
339	H339	68.637	34.399	38.338	 H	1	UNK0	0
340	H340	47.243	35.455	25.148	 H	1	UNK0	0
341	H341	73.454	39.062	26.436	 H	1	UNK0	0
342	H342	67.059	37.854	39.427	 H	1	UNK0	0
343	H343	47.397	37.221	25.31	 H	1	UNK0	0
344	H344	72.612	38.761	24.897	 H	1	UNK0	0
345	H345	65.087	37.959	40.075	 H	1	UNK0	0
346	H346	48.657	34.022	26.1	 H	1	UNK0	0
347	H347	72.947	40.43	25.417	 H	1	UNK0	0
348	H348	74.144	36.768	40.352	 H	1	UNK0	0
349	H349	46.168	34.05	26.772	 H	1	UNK0	0
350	H350	71.232	40.385	25.881	 H	1	UNK0	0
351	H351	73.465	38.383	40.931	 H	1	UNK0	0
352	H352	47.662	34.848	28.443	 H	1	UNK0	0
353	H353	70.279	37.507	31.018	 H	1	UNK0	0
354	H354	71.726	37.661	39.977	 H	1	UNK0	0
355	H355	48.122	32.461	26.825	 H	1	UNK0	0
356	H356	71.34	38.858	29.309	 H	1	UNK0	0
357	H357	71.59	36.023	40.342	 H	1	UNK0	0
358	H358	50.935	33.314	27.01	 H	1	UNK0	0
359	H359	71.244	38.206	29.881	 H	1	UNK0	0
360	H360	72.716	35.445	39.039	 H	1	UNK0	0
361	H361	44.96	36.744	25.382	 H	1	UNK0	0
362	H362	72.677	39.969	29.922	 H	1	UNK0	0
363	H363	69.899	37.576	39.575	 H	1	UNK0	0
364	H364	45.981	38.197	25.645	 H	1	UNK0	0
365	H365	71.466	41.012	30.705	 H	1	UNK0	0
366	H366	71.517	36.198	37.623	 H	1	UNK0	0
367	H367	44.737	36.146	29.421	 H	1	UNK0	0
368	H368	72.131	39.61	31.577	 H	1	UNK0	0
369	H369	57.836	38.681	40.664	 H	1	UNK0	0
370	H370	46.49	36.702	30.856	 H	1	UNK0	0
371	H371	41.222	37.038	32.043	 H	1	UNK0	0
372	H372	58.763	40.317	40.883	 H	1	UNK0	0
373	H373	48.029	36.943	28.756	 H	1	UNK0	0
374	H374	44.465	37.317	32.815	 H	1	UNK0	0
375	H375	58.392	40.741	38.943	 H	1	UNK0	0
376	H376	49.208	37.127	28.569	 H	1	UNK0	0
377	H377	68.474	36.755	32.882	 H	1	UNK0	0
378	H378	57.265	39.32	38.888	 H	1	UNK0	0
379	H379	47.651	36.136	28.977	 H	1	UNK0	0
380	H380	69.471	35.051	37.171	 H	1	UNK0	0
381	H381	59.406	37.573	40.862	 H	1	UNK0	0
382	H382	49.121	35.18	29.454	 H	1	UNK0	0
383	H383	71.165	34.523	37.034	 H	1	UNK0	0
384	H384	60.228	39.041	41.619	 H	1	UNK0	0
385	H385	49.085	37.662	29.904	 H	1	UNK0	0
386	H386	70.191	34.036	38.443	 H	1	UNK0	0
387	H387	61.81	38.055	39.942	 H	1	UNK0	0
388	H388	54.751	32.289	30.078	 H	1	UNK0	0
389	H389	40.831	39.371	34.428	 H	1	UNK0	0
390	H390	59.732	37.968	38.33	 H	1	UNK0	0
391	H391	51.727	31.331	27.249	 H	1	UNK0	0
392	H392	41.161	40.908	33.414	 H	1	UNK0	0
393	H393	62.05	36.928	40.164	 H	1	UNK0	0
394	H394	55.766	34.394	26.084	 H	1	UNK0	0
395	H395	39.409	38.789	33.181	 H	1	UNK0	0
396	H396	62.395	38.504	41.068	 H	1	UNK0	0
397	H397	55.262	33.362	28.2	 H	1	UNK0	0
398	H398	39.629	40.272	32.162	 H	1	UNK0	0
399	H399	58.604	38.109	38.128	 H	1	UNK0	0
400	H400	53.622	33.5	27.476	 H	1	UNK0	0
401	H401	42.727	39.013	34.326	 H	1	UNK0	0
402	H402	63.475	38.277	40.275	 H	1	UNK0	0
403	H403	53.006	32.412	27.281	 H	1	UNK0	0
404	H404	43.042	40.198	32.913	 H	1	UNK0	0
405	H405	62.392	39.892	38.388	 H	1	UNK0	0
406	H406	55.386	34.561	27.112	 H	1	UNK0	0
407	H407	42.821	37.706	33.472	 H	1	UNK0	0
408	H408	65.804	38.822	38.512	 H	1	UNK0	0
409	H409	54.633	34.162	27.097	 H	1	UNK0	0
410	H410	47.679	39.113	30.932	 H	1	UNK0	0
411	H411	75.113	39.109	37.675	 H	1	UNK0	0
412	H412	52.384	34.965	27.605	 H	1	UNK0	0
413	H413	49.313	39.058	34.349	 H	1	UNK0	0
414	H414	74.682	40.327	39.036	 H	1	UNK0	0
415	H415	53.34	35.268	28.261	 H	1	UNK0	0
416	H416	49.194	40.546	33.354	 H	1	UNK0	0
417	H417	75.359	37.622	38.875	 H	1	UNK0	0
418	H418	51.622	38.259	30.017	 H	1	UNK0	0
419	H419	47.089	40.609	33.642	 H	1	UNK0	0
420	H420	75.473	38.855	40.215	 H	1	UNK0	0
421	H421	54.337	38.83	30.399	 H	1	UNK0	0
422	H422	47.149	39.092	34.699	 H	1	UNK0	0
423	H423	71.467	37.836	38.774	 H	1	UNK0	0
424	H424	52.76	37.231	31.184	 H	1	UNK0	0
425	H425	47.942	38.108	32.287	 H	1	UNK0	0
426	H426	73.418	39.217	36.945	 H	1	UNK0	0
427	H427	50.769	37.708	29.463	 H	1	UNK0	0
428	H428	45.248	40.284	33.088	 H	1	UNK0	0
429	H429	72.835	40.424	38.265	 H	1	UNK0	0
430	H430	51.277	36.463	28.525	 H	1	UNK0	0
431	H431	45.142	38.884	34.288	 H	1	UNK0	0
432	H432	54.297	36.573	29.712	 H	1	UNK0	0
433	H433	50.149	38.003	32.999	 H	1	UNK0	0
434	H434	54.575	37.959	29.06	 H	1	UNK0	0
435	H435	45.019	39.059	33.15	 H	1	UNK0	0
436	H436	55.459	35.427	27.86	 H	1	UNK0	0
437	H437	55.022	38.267	35.895	 H	1	UNK0	0
438	H438	56.63	35.59	26.69	 H	1	UNK0	0
439	H439	54.398	39.288	37.333	 H	1	UNK0	0
440	H440	57.237	34.814	25.619	 H	1	UNK0	0
441	H441	55.952	39.596	38.144	 H	1	UNK0	0
442	H442	57.671	37.315	26.886	 H	1	UNK0	0
443	H443	55.314	40.769	36.967	 H	1	UNK0	0
444	H444	56.705	32.65	25.24	 H	1	UNK0	0
445	H445	56.135	37.569	33.846	 H	1	UNK0	0
446	H446	58.291	33.14	26.13	 H	1	UNK0	0
447	H447	53.833	40.396	34.825	 H	1	UNK0	0
448	H448	57.391	36.024	24.851	 H	1	UNK0	0
449	H449	53.183	38.808	35.278	 H	1	UNK0	0
450	H450	58.692	34.722	25.503	 H	1	UNK0	0
451	H451	51.527	39.612	33.805	 H	1	UNK0	0
452	H452	58.511	37.337	24.844	 H	1	UNK0	0
453	H453	51.436	40.494	32.174	 H	1	UNK0	0
454	H454	59.998	36.203	25.392	 H	1	UNK0	0
455	H455	52.753	39.575	33.271	 H	1	UNK0	0
456	H456	58.36	37.393	26.888	 H	1	UNK0	0
457	H457	56.241	38.098	36.701	 H	1	UNK0	0
458	H458	65.002	37.53	25.711	 H	1	UNK0	0
459	H459	54.469	38.136	31.878	 H	1	UNK0	0
460	H460	66.766	36.435	25.195	 H	1	UNK0	0
461	H461	53.373	38.961	31.6	 H	1	UNK0	0
462	H462	65.395	35.574	25.935	 H	1	UNK0	0
463	H463	60.508	39.581	34.105	 H	1	UNK0	0
464	H464	65.1	36.835	24.714	 H	1	UNK0	0
465	H465	59.242	37.91	32.175	 H	1	UNK0	0
466	H466	66.236	38.732	27.377	 H	1	UNK0	0
467	H467	61.762	39.593	30.704	 H	1	UNK0	0
468	H468	42.293	39.859	25.979	 H	1	UNK0	0
469	H469	60.252	39.01	33.943	 H	1	UNK0	0
470	H470	41.514	38.241	25.227	 H	1	UNK0	0
471	H471	61.258	39.811	35.382	 H	1	UNK0	0
472	H472	39.815	38.749	26.039	 H	1	UNK0	0
473	H473	56.974	38.755	36.979	 H	1	UNK0	0
474	H474	40.515	40.438	26.338	 H	1	UNK0	0
475	H475	60.441	39.344	33.651	 H	1	UNK0	0
476	H476	42.206	37.384	27.103	 H	1	UNK0	0
477	H477	62.012	38.611	34.869	 H	1	UNK0	0
478	H478	39.413	38.525	27.763	 H	1	UNK0	0
479	H479	57.994	39.198	37.512	 H	1	UNK0	0
480	H480	40.279	40.221	28.307	 H	1	UNK0	0
@<TRIPOS>BOND								
1 1 4 1								
2 1 211 1								
3 1 214 1								
4 1 217 1								
5 2 5 1								
6 2 24 1								
7 2 220 1								
8 2 223 1								
9 3 5 1								
10 3 6 1								
11 3 226 1								
12 3 229 1								
13 4 24 1								
14 4 232 1								
15 4 235 1								
16 5 31 1								
17 5 238 1								
18 6 42 1								
19 6 241 1								
20 6 244 1								
21 7 11 1								
22 7 15 1								
23 7 44 1								
24 7 247 1								
25 8 11 1								
26 8 41 1								
27 8 250 1								
28 8 253 1								
29 9 10 1								
30 9 41 1								
31 9 46 1								
32 9 256 1								
33 10 259 1								
34 10 262 1								
35 10 265 1								
36 11 268 1								
37 11 271 1								
38 12 14 1								
39 12 274 1								
40 12 277 1								
41 12 280 1								
42 13 14 1								
43 13 15 1								
44 13 283 1								
45 13 286 1								
46 14 289 1								
47 14 292 1								
48 15 62 1								
49 15 295 1								
50 16 18 1								
51 16 20 1								
52 16 71 1								
53 16 298 1								
54 17 18 1								
55 17 19 1								
56 17 117 1								
57 17 301 1								
58 18 75 1								
59 18 304 1								
60 19 34 1								
61 19 118 1								
62 19 307 1								
63 20 22 1								
64 20 34 1								
65 20 310 1								
66 21 32 1								
67 21 39 1								
68 21 49 1								
69 21 313 1								
70 22 23 1								
71 22 33 1								
72 22 316 1								
73 23 25 1								
74 23 38 1								
75 23 319 1								
76 24 29 1								
77 24 322 1								
78 25 27 1								
79 25 30 1								
80 25 325 1								
81 26 29 1								
82 26 328 1								
83 26 331 1								
84 26 334 1								
85 27 337 1								
86 27 340 1								
87 27 343 1								
88 28 29 1								
89 28 30 1								
90 28 31 1								
91 28 346 1								
92 29 349 1								
93 30 39 1								
94 30 352 1								
95 31 32 1								
96 31 355 1								
97 32 42 1								
98 32 358 1								
99 33 73 1								
100 33 361 1								
101 33 364 1								
102 34 35 1								
103 34 367 1								
104 35 38 1								
105 35 78 1								
106 35 370 1								
107 36 37 1								
108 36 38 1								
109 36 40 1								
110 36 373 1								
111 37 39 1								
112 37 54 1								
113 37 376 1								
114 38 379 1								
115 39 382 1								
116 40 77 1								
117 40 125 1								
118 40 385 1								
119 41 44 1								
120 41 388 1								
121 42 46 1								
122 42 391 1								
123 43 47 1								
124 43 60 1								
125 43 62 1								
126 43 394 1								
127 44 47 1								
128 44 397 1								
129 45 46 1								
130 45 48 1								
131 45 49 1								
132 45 400 1								
133 46 403 1								
134 47 48 1								
135 47 406 1								
136 48 50 1								
137 48 409 1								
138 49 55 1								
139 49 412 1								
140 50 56 1								
141 50 58 1								
142 50 415 1								
143 51 54 1								
144 51 77 1								
145 51 79 1								
146 51 418 1								
147 52 53 1								
148 52 57 1								
149 52 80 1								
150 52 421 1								
151 53 56 1								
152 53 79 1								
153 53 424 1								
154 54 55 1								
155 54 427 1								
156 55 56 1								
157 55 430 1								
158 56 432 1								
159 57 58 1								
160 57 81 1								
161 57 434 1								
162 58 59 1								
163 58 436 1								
164 59 60 1								
165 59 61 1								
166 59 438 1								
167 60 63 1								
168 60 440 1								
169 61 81 1								
170 61 86 1								
171 61 442 1								
172 62 444 1								
173 62 446 1								
174 63 64 1								
175 63 448 1								
176 63 450 1								
177 64 65 1								
178 64 452 1								
179 64 454 1								
180 65 85 1								
181 65 86 1								
182 65 456 1								
183 66 67 1								
184 66 68 1								
185 66 96 1								
186 66 458 1								
187 67 460 1								
188 67 462 1								
189 67 464 1								
190 68 99 1								
191 68 108 1								
192 68 466 1								
193 69 70 1								
194 69 71 1								
195 69 468 1								
196 69 470 1								
197 70 72 1								
198 70 472 1								
199 70 474 1								
200 71 73 1								
201 71 476 1								
202 72 75 1								
203 72 478 1								
204 72 480 1								
205 73 207 1								
206 73 209 1								
207 74 75 1								
208 74 76 1								
209 74 212 1								
210 74 215 1								
211 75 218 1								
212 76 117 1								
213 76 122 1								
214 76 221 1								
215 77 130 1								
216 77 224 1								
217 78 125 1								
218 78 131 1								
219 78 227 1								
220 79 140 1								
221 79 230 1								
222 80 82 1								
223 80 139 1								
224 80 233 1								
225 81 92 1								
226 81 236 1								
227 82 92 1								
228 82 155 1								
229 82 239 1								
230 83 84 1								
231 83 85 1								
232 83 87 1								
233 83 242 1								
234 84 93 1								
235 84 95 1								
236 84 245 1								
237 85 248 1								
238 85 251 1								
239 86 94 1								
240 86 254 1								
241 87 90 1								
242 87 94 1								
243 87 257 1								
244 88 89 1								
245 88 91 1								
246 88 142 1								
247 88 260 1								
248 89 92 1								
249 89 94 1								
250 89 263 1								
251 90 91 1								
252 90 93 1								
253 90 266 1								
254 91 143 1								
255 91 269 1								
256 92 272 1								
257 93 105 1								
258 93 275 1								
259 94 278 1								
260 95 96 1								
261 95 281 1								
262 95 284 1								
263 96 100 1								
264 96 287 1								
265 97 98 1								
266 97 99 1								
267 97 110 1								
268 97 290 1								
269 98 102 1								
270 98 114 1								
271 98 293 1								
272 99 296 1								
273 99 299 1								
274 100 105 1								
275 100 107 1								
276 100 302 1								
277 101 104 1								
278 101 105 1								
279 101 157 1								
280 101 305 1								
281 102 106 1								
282 102 108 1								
283 102 308 1								
284 103 106 1								
285 103 119 1								
286 103 169 1								
287 103 311 1								
288 104 107 1								
289 104 169 1								
290 104 314 1								
291 105 317 1								
292 106 113 1								
293 106 320 1								
294 107 108 1								
295 107 323 1								
296 108 326 1								
297 109 112 1								
298 109 114 1								
299 109 329 1								
300 109 332 1								
301 110 112 1								
302 110 335 1								
303 110 338 1								
304 111 112 1								
305 111 341 1								
306 111 344 1								
307 111 347 1								
308 112 350 1								
309 113 115 1								
310 113 173 1								
311 113 353 1								
312 114 115 1								
313 114 356 1								
314 115 116 1								
315 115 359 1								
316 116 362 1								
317 116 365 1								
318 116 368 1								
319 117 124 1								
320 117 371 1								
321 118 124 1								
322 118 131 1								
323 118 374 1								
324 119 159 1								
325 119 171 1								
326 119 377 1								
327 120 192 1								
328 120 380 1								
329 120 383 1								
330 120 386 1								
331 121 122 1								
332 121 123 1								
333 121 389 1								
334 121 392 1								
335 122 395 1								
336 122 398 1								
337 123 124 1								
338 123 401 1								
339 123 404 1								
340 124 407 1								
341 125 128 1								
342 125 410 1								
343 126 128 1								
344 126 130 1								
345 126 413 1								
346 126 416 1								
347 127 128 1								
348 127 129 1								
349 127 419 1								
350 127 422 1								
351 128 425 1								
352 129 131 1								
353 129 428 1								
354 129 431 1								
355 130 136 1								
356 130 433 1								
357 131 435 1								
358 132 134 1								
359 132 135 1								
360 132 138 1								
361 132 437 1								
362 133 138 1								
363 133 439 1								
364 133 441 1								
365 133 443 1								
366 134 139 1								
367 134 154 1								
368 134 445 1								
369 135 137 1								
370 135 447 1								
371 135 449 1								
372 136 140 1								
373 136 451 1								
374 136 453 1								
375 137 139 1								
376 137 140 1								
377 137 455 1								
378 138 146 1								
379 138 457 1								
380 139 459 1								
381 140 461 1								
382 141 142 1								
383 141 144 1								
384 141 147 1								
385 141 463 1								
386 142 155 1								
387 142 465 1								
388 143 147 1								
389 143 157 1								
390 143 467 1								
391 144 150 1								
392 144 151 1								
393 144 469 1								
394 145 150 1								
395 145 152 1								
396 145 153 1								
397 145 471 1								
398 146 149 1								
399 146 151 1								
400 146 473 1								
401 147 148 1								
402 147 475 1								
403 148 153 1								
404 148 160 1								
405 148 477 1								
406 149 150 1								
407 149 199 1								
408 149 479 1								
409 150 208 1								
410 151 154 1								
411 151 210 1								
412 152 197 1								
413 152 201 1								
414 152 213 1								
415 153 164 1								
416 153 216 1								
417 154 155 1								
418 154 219 1								
419 155 222 1								
420 156 159 1								
421 156 163 1								
422 156 169 1								
423 156 225 1								
424 157 160 1								
425 157 228 1								
426 158 167 1								
427 158 170 1								
428 158 178 1								
429 158 231 1								
430 159 161 1								
431 159 234 1								
432 160 163 1								
433 160 237 1								
434 161 162 1								
435 161 167 1								
436 161 240 1								
437 162 165 1								
438 162 166 1								
439 162 243 1								
440 163 166 1								
441 163 246 1								
442 164 166 1								
443 164 168 1								
444 164 249 1								
445 165 170 1								
446 165 202 1								
447 165 252 1								
448 166 255 1								
449 167 172 1								
450 167 258 1								
451 168 201 1								
452 168 202 1								
453 168 261 1								
454 169 264 1								
455 170 186 1								
456 170 267 1								
457 171 172 1								
458 171 173 1								
459 171 270 1								
460 172 176 1								
461 172 273 1								
462 173 174 1								
463 173 276 1								
464 174 279 1								
465 174 282 1								
466 174 285 1								
467 175 176 1								
468 175 177 1								
469 175 288 1								
470 175 291 1								
471 176 294 1								
472 176 297 1								
473 177 178 1								
474 177 205 1								
475 177 300 1								
476 178 191 1								
477 178 303 1								
478 179 183 1								
479 179 306 1								
480 179 309 1								
481 179 312 1								
482 180 185 1								
483 180 186 1								
484 180 191 1								
485 180 315 1								
486 181 184 1								
487 181 187 1								
488 181 318 1								
489 181 321 1								
490 182 183 1								
491 182 184 1								
492 182 185 1								
493 182 324 1								
494 183 327 1								
495 183 330 1								
496 184 186 1								
497 184 333 1								
498 185 336 1								
499 185 339 1								
500 186 342 1								
501 187 200 1								
502 187 202 1								
503 187 345 1								
504 188 189 1								
505 188 204 1								
506 188 348 1								
507 188 351 1								
508 189 190 1								
509 189 205 1								
510 189 354 1								
511 190 192 1								
512 190 357 1								
513 190 360 1								
514 191 192 1								
515 191 363 1								
516 192 366 1								
517 193 194 1								
518 193 195 1								
519 193 369 1								
520 193 372 1								
521 194 199 1								
522 194 375 1								
523 194 378 1								
524 195 196 1								
525 195 381 1								
526 195 384 1								
527 196 197 1								
528 196 198 1								
529 196 387 1								
530 197 199 1								
531 197 390 1								
532 198 200 1								
533 198 393 1								
534 198 396 1								
535 199 399 1								
536 200 201 1								
537 200 402 1								
538 201 405 1								
539 202 408 1								
540 203 204 1								
541 203 206 1								
542 203 411 1								
543 203 414 1								
544 204 417 1								
545 204 420 1								
546 205 206 1								
547 205 423 1								
548 206 426 1								
549 206 429 1								
@<TRIPOS>SUBSTRUCTURE								
1	UNK1	1	GROUP	1 ****	UNK			