# created with PyMOL 2.4.2
@<TRIPOS>MOLECULE
obj01
18 19 1                 
SMALL
USER_CHARGES
@<TRIPOS>ATOM
1	 C01	-0.000	0.707	-0.000	C.2	1	UNK1	0.000	
2	 C02	-1.214	1.393	-0.164	C.2	1	UNK1	0.000	
3	 C03	-2.412	0.696	-0.326	C.2	1	UNK1	0.000	
4	 C04	-2.412	-0.696	-0.326	C.2	1	UNK1	0.000	
5	 C05	-1.214	-1.394	-0.164	C.2	1	UNK1	0.000	
6	 C06	0.000	-0.707	-0.001	C.2	1	UNK1	0.000	
7	 C07	1.214	1.394	0.164	C.2	1	UNK1	0.000	
8	 C08	1.214	-1.393	0.164	C.2	1	UNK1	0.000	
9	 C09	2.412	-0.696	0.326	C.2	1	UNK1	0.000	
10	 C10	2.412	0.696	0.326	C.2	1	UNK1	0.000	
11	 H11	1.234	2.481	0.167	 H	1	UNK1	0.000	
12	 H12	3.344	1.241	0.453	 H	1	UNK1	0.000	
13	 H13	3.344	-1.240	0.453	 H	1	UNK1	0.000	
14	 H14	1.235	-2.481	0.166	 H	1	UNK1	0.000	
15	 H18	-1.234	2.481	-0.167	 H	1	UNK1	0.000	
16	 H19	-3.345	1.240	-0.451	 H	1	UNK1	0.000	
17	 H20	-3.344	-1.241	-0.452	 H	1	UNK1	0.000	
18	 H21	-1.234	-2.481	-0.167	 H	1	UNK1	0.000	
@<TRIPOS>BOND
1 1 2 2
2 1 6 1
3 1 7 1
4 2 3 1
5 2 15 1
6 3 4 2
7 3 16 1
8 4 5 1
9 4 17 1
10 5 6 2
11 5 18 1
12 6 8 1
13 7 10 2
14 7 11 1
15 8 9 2
16 8 14 1
17 9 13 1
18 9 10 1
19 10 12 1
@<TRIPOS>SUBSTRUCTURE
1	UNK1	1	GROUP	1 ****	UNK
