# created with PyMOL 2.5.4
@<TRIPOS>MOLECULE
271
32 36 1
SMALL
GASTEIGER
USER_CHARGES
@<TRIPOS>ATOM
      1 C01          -1.4190    0.0000    0.0000 C.2     1  UNK0    0.000
      2 C02           1.4190    0.0000    0.0000 C.2     1  UNK0    0.000
      3 C03           0.7160    1.2339    0.0000 C.2     1  UNK0    0.000
      4 C04          -0.7160    1.2340    0.0000 C.2     1  UNK0    0.000
      5 C05           0.7159   -1.2340    0.0000 C.2     1  UNK0    0.000
      6 C06          -0.7160   -1.2340    0.0000 C.2     1  UNK0    0.000
      7 C07          -2.8490    0.0000    0.0000 C.2     1  UNK0    0.000
      8 C08           2.8491    0.0000    0.0000 C.2     1  UNK0    0.000
      9 C09           1.4911    2.4215    0.0000 C.2     1  UNK0    0.000
     10 C10           1.4910   -2.4216    0.0000 C.2     1  UNK0    0.000
     11 C11          -1.4910    2.4215    0.0000 C.2     1  UNK0    0.000
     12 C12          -1.4911   -2.4216    0.0000 C.2     1  UNK0    0.000
     13 C13          -3.5596   -1.2015    0.0000 C.2     1  UNK0    0.000
     14 C14          -3.5595    1.2018    0.0000 C.2     1  UNK0    0.000
     15 C15           3.5596   -1.2016    0.0000 C.2     1  UNK0    0.000
     16 C16           3.5596    1.2016    0.0000 C.2     1  UNK0    0.000
     17 C17           2.8838    2.4085    0.0000 C.2     1  UNK0    0.000
     18 C18           2.8837   -2.4085    0.0000 C.2     1  UNK0    0.000
     19 C19          -2.8837    2.4086    0.0000 C.2     1  UNK0    0.000
     20 C20          -2.8839   -2.4086    0.0000 C.2     1  UNK0    0.000
     21 H21          1.0250    3.4031     0.0000 H       1  UNK0    0.000
     22 H22           1.0249   -3.4032    0.0000 H       1  UNK0    0.000
     23 H23          -1.0249    3.4031    0.0000 H       1  UNK0    0.000
     24 H24          -1.0250   -3.4033    0.0000 H       1  UNK0    0.000
     25 H25          -4.6474   -1.2106    0.0000 H       1  UNK0    0.000
     26 H26          -4.6474    1.2109    0.0000 H       1  UNK0    0.000
     27 H27           4.6475   -1.2107    0.0000 H       1  UNK0    0.000
     28 H28           4.6476    1.2106    0.0000 H       1  UNK0    0.000
     29 H29           3.4361    3.3435    0.0000 H       1  UNK0    0.000
     30 H30           3.4360   -3.3436    0.0000 H       1  UNK0    0.000
     31 H31          -3.4360    3.3437    0.0000 H       1  UNK0    0.000
     32 H32          -3.4363   -3.3436    0.0000 H       1  UNK0    0.000
@<TRIPOS>BOND
     1     1     4   2
     2     1     6   2
     3     1     7   2
     4     2     3   2
     5     2     5   2
     6     2     8   2
     7     3     4   2
     8     3     9   2
     9     4    11   2
    10     5     6   2
    11     5    10   2
    12     6    12   2
    13     7    13   2
    14     7    14   2
    15     8    15   2
    16     8    16   2
    17     9    17   2
    18     9    21   1
    19    10    18   2
    20    10    22   1
    21    11    19   2
    22    11    23   1
    23    12    20   2
    24    12    24   1
    25    13    20   2
    26    13    25   1
    27    14    19   2
    28    14    26   1
    29    15    18   2
    30    15    27   1
    31    16    17   2
    32    16    28   1
    33    17    29   1
    34    18    30   1
    35    19    31   1
    36    20    32   1
@<TRIPOS>SUBSTRUCTURE
1    UNK    1    GROUP    1 ****    UNK
