# created with PyMOL 2.4.2
@<TRIPOS>MOLECULE
9149
23 25 1                 
SMALL
USER_CHARGES
@<TRIPOS>ATOM
1	 C01	0.011	-0.004	0.000	C.2	1	UNK	0.000	
2	 C02	-0.316	-1.378	-0.000	C.2	1	UNK	0.000	
3	 C03	-0.994	0.988	0.000	C.2	1	UNK	0.000	
4	 C04	-1.763	-1.821	-0.000	C.3	1	UNK	0.000	
5	 C05	1.371	0.386	0.000	C.2	1	UNK	0.000	
6	 C06	-2.411	0.601	-0.000	C.2	1	UNK	0.000	
7	 C07	-2.757	-0.694	-0.000	C.2	1	UNK	0.000	
8	 C08	0.702	-2.343	-0.000	C.2	1	UNK	0.000	
9	 C09	-0.645	2.343	0.000	C.2	1	UNK	0.000	
10	 C10	2.371	-0.599	-0.000	C.2	1	UNK	0.000	
11	 C11	1.696	1.752	0.000	C.2	1	UNK	0.000	
12	 C12	2.038	-1.954	-0.000	C.2	1	UNK	0.000	
13	 C13	0.695	2.723	0.000	C.2	1	UNK	0.000	
14	 H14	-1.941	-2.439	-0.888	 H	1	UNK	0.000	
15	 H15	-1.941	-2.440	0.888	 H	1	UNK	0.000	
16	 H16	-3.165	1.381	-0.000	 H	1	UNK	0.000	
17	 H17	-3.808	-0.966	-0.000	 H	1	UNK	0.000	
18	 H18	0.453	-3.402	-0.000	 H	1	UNK	0.000	
19	 H19	-1.413	3.112	0.000	 H	1	UNK	0.000	
20	 H20	3.421	-0.316	0.000	 H	1	UNK	0.000	
21	 H21	2.737	2.069	0.000	 H	1	UNK	0.000	
22	 H22	2.823	-2.705	-0.000	 H	1	UNK	0.000	
23	 H23	0.962	3.777	0.000	 H	1	UNK	0.000	
@<TRIPOS>BOND
1 1 2 1
2 1 3 1
3 1 5 2
4 2 4 1
5 2 8 2
6 3 6 1
7 3 9 2
8 4 7 1
9 4 14 1
10 4 15 1
11 5 10 1
12 5 11 1
13 6 7 2
14 6 16 1
15 7 17 1
16 8 12 1
17 8 18 1
18 9 13 1
19 9 19 1
20 10 12 2
21 10 20 1
22 11 13 2
23 11 21 1
24 12 22 1
25 13 23 1
@<TRIPOS>SUBSTRUCTURE
1	UNK	1	GROUP	1 ****	UNK
