# created with PyMOL 2.4.2
@<TRIPOS>MOLECULE
995
24 26 1                 
SMALL
USER_CHARGES
@<TRIPOS>ATOM
1	 C01	-0.721	-0.394	0.000	C.2	1	UNK	0.000	
2	 C02	0.721	-0.394	0.000	C.2	1	UNK	0.000	
3	 C03	-1.413	0.845	0.000	C.2	1	UNK	0.000	
4	 C04	1.413	0.845	0.000	C.2	1	UNK	0.000	
5	 C05	-0.696	2.045	0.000	C.2	1	UNK	0.000	
6	 C06	0.696	2.045	0.000	C.2	1	UNK	0.000	
7	 C07	-1.519	-1.566	0.000	C.2	1	UNK	0.000	
8	 C08	1.519	-1.566	0.000	C.2	1	UNK	0.000	
9	 C09	-2.818	0.880	0.000	C.2	1	UNK	0.000	
10	 C10	2.818	0.880	0.000	C.2	1	UNK	0.000	
11	 C11	-2.916	-1.519	0.000	C.2	1	UNK	0.000	
12	 C12	2.916	-1.518	0.000	C.2	1	UNK	0.000	
13	 C13	-3.566	-0.294	0.000	C.2	1	UNK	0.000	
14	 C14	3.566	-0.294	0.000	C.2	1	UNK	0.000	
15	 H14	-1.217	3.000	0.000	 H	1	UNK	0.000	
16	 H15	1.217	3.000	0.000	 H	1	UNK	0.000	
17	 H16	-1.060	-2.551	0.000	 H	1	UNK	0.000	
18	 H17	1.060	-2.551	0.000	 H	1	UNK	0.000	
19	 H18	-3.344	1.832	0.000	 H	1	UNK	0.000	
20	 H19	3.344	1.832	0.000	 H	1	UNK	0.000	
21	 H20	-3.490	-2.441	0.000	 H	1	UNK	0.000	
22	 H21	3.490	-2.441	0.000	 H	1	UNK	0.000	
23	 H22	-4.652	-0.250	0.000	 H	1	UNK	0.000	
24	 H23	4.651	-0.250	0.000	 H	1	UNK	0.000	
@<TRIPOS>BOND
1 1 2 1
2 1 3 1
3 1 7 2
4 2 4 1
5 2 8 2
6 3 5 1
7 3 9 2
8 4 6 1
9 4 10 2
10 5 6 2
11 5 15 1
12 6 16 1
13 7 11 1
14 7 17 1
15 8 12 1
16 8 18 1
17 9 13 1
18 9 19 1
19 10 14 1
20 10 20 1
21 11 13 2
22 11 21 1
23 12 14 2
24 12 22 1
25 13 23 1
26 14 24 1
@<TRIPOS>SUBSTRUCTURE
1	UNK	1	GROUP	1 ****	UNK
