# created with PyMOL 2.4.2
@<TRIPOS>MOLECULE
31423
26 29 1                 
SMALL
USER_CHARGES
@<TRIPOS>ATOM
1	 C01	-0.706	0.012	-0.000	C.2	1	UNK	0.000	
2	 C02	0.706	0.012	-0.000	C.2	1	UNK	0.000	
3	 C03	-1.415	1.234	-0.000	C.2	1	UNK	0.000	
4	 C04	1.415	1.234	-0.000	C.2	1	UNK	0.000	
5	 C05	-1.419	-1.207	0.000	C.2	1	UNK	0.000	
6	 C06	1.419	-1.207	-0.000	C.2	1	UNK	0.000	
7	 C07	-0.699	2.439	-0.000	C.2	1	UNK	0.000	
8	 C08	0.699	2.439	-0.000	C.2	1	UNK	0.000	
9	 C09	-0.671	-2.475	0.000	C.2	1	UNK	0.000	
10	 C10	0.671	-2.475	-0.000	C.2	1	UNK	0.000	
11	 C11	-2.819	1.212	-0.000	C.2	1	UNK	0.000	
12	 C12	2.819	1.213	-0.000	C.2	1	UNK	0.000	
13	 C13	-2.818	-1.206	0.000	C.2	1	UNK	0.000	
14	 C14	2.818	-1.206	-0.000	C.2	1	UNK	0.000	
15	 C15	-3.514	0.002	0.000	C.2	1	UNK	0.000	
16	 C16	3.514	0.002	-0.000	C.2	1	UNK	0.000	
17	 H17	-1.224	3.392	-0.000	 H	1	UNK	0.000	
18	 H18	1.224	3.392	-0.000	 H	1	UNK	0.000	
19	 H19	-1.228	-3.406	0.000	 H	1	UNK	0.000	
20	 H20	1.228	-3.406	-0.000	 H	1	UNK	0.000	
21	 H21	-3.383	2.142	-0.000	 H	1	UNK	0.000	
22	 H22	3.383	2.143	-0.000	 H	1	UNK	0.000	
23	 H23	-3.372	-2.140	0.000	 H	1	UNK	0.000	
24	 H24	3.372	-2.140	-0.000	 H	1	UNK	0.000	
25	 H25	-4.601	0.001	0.000	 H	1	UNK	0.000	
26	 H26	4.601	0.001	-0.000	 H	1	UNK	0.000	
@<TRIPOS>BOND
1 1 2 1
2 1 3 2
3 1 5 1
4 2 4 2
5 2 6 1
6 3 7 1
7 3 11 1
8 4 8 1
9 4 12 1
10 5 9 1
11 5 13 2
12 6 10 1
13 6 14 2
14 7 8 2
15 7 17 1
16 8 18 1
17 9 10 2
18 9 19 1
19 10 20 1
20 11 15 2
21 11 21 1
22 12 16 2
23 12 22 1
24 13 15 1
25 13 23 1
26 14 16 1
27 14 24 1
28 15 25 1
29 16 26 1
@<TRIPOS>SUBSTRUCTURE
1	UNK	1	GROUP	1 ****	UNK
